<?xml version="1.0" encoding="UTF-8"?>

<!-- generated on 2024-03-20 18:49:41 by Eclipse SUMO netedit Version 1.18.0
<configuration xmlns:xsi="http://www.w3.org/2001/XMLSchema-instance" xsi:noNamespaceSchemaLocation="http://sumo.dlr.de/xsd/neteditConfiguration.xsd">

    <input>
        <sumo-net-file value="/Users/cianmurphy/code_directories/sumo-routing/exp3/sim_files/tree_100.net.xml"/>
    </input>

    <output>
        <output-file value="/Users/cianmurphy/code_directories/sumo-routing/exp3/sim_files/tree_100.net.xml"/>
    </output>

    <processing>
        <geometry.min-radius.fix.railways value="false"/>
        <geometry.max-grade.fix value="false"/>
        <offset.disable-normalization value="true"/>
        <lefthand value="0"/>
    </processing>

    <junctions>
        <no-turnarounds value="true"/>
        <junctions.corner-detail value="5"/>
        <junctions.limit-turn-speed value="5.50"/>
        <rectangular-lane-cut value="0"/>
    </junctions>

    <pedestrian>
        <walkingareas value="0"/>
    </pedestrian>

</configuration>
-->

<net version="1.16" junctionCornerDetail="5" limitTurnSpeed="5.50" xmlns:xsi="http://www.w3.org/2001/XMLSchema-instance" xsi:noNamespaceSchemaLocation="http://sumo.dlr.de/xsd/net_file.xsd">

    <location netOffset="0.00,0.00" convBoundary="-280.35,-792.11,288.05,85.06" origBoundary="-10000000000.00,-10000000000.00,10000000000.00,10000000000.00" projParameter="!"/>

    <edge id=":J1_0" function="internal">
        <lane id=":J1_0_0" index="0" speed="7.69" length="6.98" shape="45.08,51.18 44.84,49.74 44.13,48.33 42.95,46.96 41.29,45.62"/>
    </edge>
    <edge id=":J1_1" function="internal">
        <lane id=":J1_1_0" index="0" speed="7.91" length="6.93" shape="45.08,51.18 45.22,49.08 45.65,47.33 46.37,45.93 47.37,44.88"/>
    </edge>
    <edge id=":J10_0" function="internal">
        <lane id=":J10_0_0" index="0" speed="13.89" length="11.96" shape="-53.72,-231.38 -54.87,-234.43 -55.65,-237.02 -56.31,-239.65 -57.11,-242.82"/>
    </edge>
    <edge id=":J10_1" function="internal">
        <lane id=":J10_1_0" index="0" speed="13.56" length="12.64" shape="-53.72,-231.38 -54.50,-234.56 -54.28,-237.43 -53.46,-240.34 -52.46,-243.65"/>
    </edge>
    <edge id=":J10_2" function="internal">
        <lane id=":J10_2_0" index="0" speed="8.73" length="11.80" shape="-53.72,-231.38 -53.92,-233.28 -53.14,-235.60 -51.36,-238.33 -48.60,-241.46"/>
    </edge>
    <edge id=":J11_0" function="internal">
        <lane id=":J11_0_0" index="0" speed="13.89" length="10.47" shape="45.92,-234.83 44.38,-237.45 43.40,-239.40 42.54,-241.43 41.39,-244.25"/>
    </edge>
    <edge id=":J11_1" function="internal">
        <lane id=":J11_1_0" index="0" speed="8.87" length="2.83" shape="45.92,-234.83 45.08,-236.81 45.01,-237.48"/>
    </edge>
    <edge id=":J11_4" function="internal">
        <lane id=":J11_4_0" index="0" speed="8.87" length="6.89" shape="45.01,-237.48 44.85,-239.03 45.22,-241.48 46.21,-244.15"/>
    </edge>
    <edge id=":J11_2" function="internal">
        <lane id=":J11_2_0" index="0" speed="8.39" length="9.60" shape="40.61,-235.14 41.78,-237.13 42.30,-239.31 42.17,-241.68 41.39,-244.25"/>
    </edge>
    <edge id=":J11_3" function="internal">
        <lane id=":J11_3_0" index="0" speed="13.89" length="10.65" shape="40.61,-235.14 42.50,-237.57 43.79,-239.42 44.89,-241.38 46.21,-244.15"/>
    </edge>
    <edge id=":J12_0" function="internal">
        <lane id=":J12_0_0" index="0" speed="7.36" length="8.04" shape="247.16,-243.72 247.61,-245.42 247.43,-247.21 246.62,-249.08 245.17,-251.05"/>
    </edge>
    <edge id=":J12_1" function="internal">
        <lane id=":J12_1_0" index="0" speed="13.89" length="9.06" shape="247.16,-243.72 248.29,-246.17 248.99,-247.87 249.58,-249.61 250.35,-252.19"/>
    </edge>
    <edge id=":J13_0" function="internal">
        <lane id=":J13_0_0" index="0" speed="13.89" length="15.09" shape="138.10,-240.21 135.75,-243.14 133.23,-245.96 130.61,-248.69 127.95,-251.36"/>
    </edge>
    <edge id=":J13_1" function="internal">
        <lane id=":J13_1_0" index="0" speed="13.89" length="2.65" shape="138.10,-240.21 136.65,-242.43"/>
    </edge>
    <edge id=":J13_2" function="internal">
        <lane id=":J13_2_0" index="0" speed="10.50" length="2.82" shape="138.10,-240.21 136.89,-242.76"/>
    </edge>
    <edge id=":J13_3" function="internal">
        <lane id=":J13_3_0" index="0" speed="8.01" length="2.81" shape="138.10,-240.21 136.97,-242.78"/>
    </edge>
    <edge id=":J13_8" function="internal">
        <lane id=":J13_8_0" index="0" speed="13.89" length="12.38" shape="136.65,-242.43 136.06,-243.34 134.33,-246.68 132.82,-250.13 131.42,-253.63"/>
    </edge>
    <edge id=":J13_9" function="internal">
        <lane id=":J13_9_0" index="0" speed="10.50" length="11.76" shape="136.89,-242.76 136.57,-245.95 137.15,-249.77 138.62,-254.23"/>
    </edge>
    <edge id=":J13_10" function="internal">
        <lane id=":J13_10_0" index="0" speed="8.01" length="10.69" shape="136.97,-242.78 137.27,-245.56 138.98,-248.54 142.12,-251.71"/>
    </edge>
    <edge id=":J13_4" function="internal">
        <lane id=":J13_4_0" index="0" speed="9.58" length="13.59" shape="132.98,-239.43 133.33,-242.08 132.61,-244.95 130.82,-248.04 127.95,-251.36"/>
    </edge>
    <edge id=":J13_5" function="internal">
        <lane id=":J13_5_0" index="0" speed="13.46" length="14.59" shape="132.98,-239.43 133.70,-242.99 133.51,-246.56 132.67,-250.11 131.42,-253.63"/>
    </edge>
    <edge id=":J13_6" function="internal">
        <lane id=":J13_6_0" index="0" speed="13.89" length="15.83" shape="132.98,-239.43 138.62,-254.23"/>
    </edge>
    <edge id=":J13_7" function="internal">
        <lane id=":J13_7_0" index="0" speed="13.89" length="15.46" shape="132.98,-239.43 134.57,-242.88 136.74,-246.13 139.32,-249.09 142.12,-251.71"/>
    </edge>
    <edge id=":J14_0" function="internal">
        <lane id=":J14_0_0" index="0" speed="13.89" length="12.23" shape="-281.93,-583.96 -281.68,-587.24 -280.94,-589.91 -279.75,-592.47 -278.16,-595.41"/>
    </edge>
    <edge id=":J14_1" function="internal">
        <lane id=":J14_1_0" index="0" speed="5.47" length="10.58" shape="-281.93,-583.96 -281.62,-587.50 -280.66,-588.95 -279.04,-588.32 -276.76,-585.60"/>
    </edge>
    <edge id=":J15_0" function="internal">
        <lane id=":J15_0_0" index="0" speed="13.89" length="13.73" shape="-143.69,-302.72 -144.63,-306.10 -144.91,-309.38 -144.82,-312.72 -144.67,-316.30"/>
    </edge>
    <edge id=":J15_1" function="internal">
        <lane id=":J15_1_0" index="0" speed="12.14" length="2.28" shape="-143.69,-302.72 -144.11,-304.96"/>
    </edge>
    <edge id=":J15_4" function="internal">
        <lane id=":J15_4_0" index="0" speed="12.14" length="11.20" shape="-144.11,-304.96 -144.31,-306.03 -143.75,-309.13 -142.48,-312.22 -140.97,-315.50"/>
    </edge>
    <edge id=":J15_2" function="internal">
        <lane id=":J15_2_0" index="0" speed="11.87" length="13.33" shape="-148.12,-303.72 -146.68,-305.64 -145.63,-308.38 -144.96,-311.94 -144.67,-316.30"/>
    </edge>
    <edge id=":J15_3" function="internal">
        <lane id=":J15_3_0" index="0" speed="13.89" length="13.90" shape="-148.12,-303.72 -145.74,-306.35 -143.91,-309.17 -142.41,-312.20 -140.97,-315.50"/>
    </edge>
    <edge id=":J16_0" function="internal">
        <lane id=":J16_0_0" index="0" speed="13.89" length="11.49" shape="-72.39,-300.67 -75.50,-311.73"/>
    </edge>
    <edge id=":J16_1" function="internal">
        <lane id=":J16_1_0" index="0" speed="12.18" length="2.67" shape="-72.39,-300.67 -72.95,-303.28"/>
    </edge>
    <edge id=":J16_4" function="internal">
        <lane id=":J16_4_0" index="0" speed="12.18" length="8.48" shape="-72.95,-303.28 -73.05,-303.75 -73.12,-306.16 -72.55,-308.51 -71.33,-311.43"/>
    </edge>
    <edge id=":J16_2" function="internal">
        <lane id=":J16_2_0" index="0" speed="10.72" length="10.87" shape="-76.60,-301.21 -75.49,-303.70 -74.94,-306.28 -74.95,-308.95 -75.50,-311.73"/>
    </edge>
    <edge id=":J16_3" function="internal">
        <lane id=":J16_3_0" index="0" speed="13.89" length="11.50" shape="-76.60,-301.21 -71.33,-311.43"/>
    </edge>
    <edge id=":J17_0" function="internal">
        <lane id=":J17_0_0" index="0" speed="13.89" length="8.00" shape="-36.66,-303.44 -36.30,-305.71 -36.55,-307.30 -37.14,-308.90 -37.80,-311.19"/>
    </edge>
    <edge id=":J17_1" function="internal">
        <lane id=":J17_1_0" index="0" speed="13.89" length="12.57" shape="-36.66,-303.44 -35.68,-306.66 -34.62,-309.37 -33.45,-312.05 -32.13,-315.15"/>
    </edge>
    <edge id=":J17_2" function="internal">
        <lane id=":J17_2_0" index="0" speed="13.89" length="12.58" shape="-36.66,-303.44 -35.40,-306.48 -33.62,-308.74 -31.45,-310.79 -29.02,-313.20"/>
    </edge>
    <edge id=":J18_0" function="internal">
        <lane id=":J18_0_0" index="0" speed="13.89" length="8.10" shape="-256.72,-302.40 -259.90,-309.85"/>
    </edge>
    <edge id=":J18_1" function="internal">
        <lane id=":J18_1_0" index="0" speed="8.90" length="7.71" shape="-256.72,-302.40 -257.04,-303.70 -256.96,-305.38 -256.48,-307.43 -255.60,-309.86"/>
    </edge>
    <edge id=":J19_0" function="internal">
        <lane id=":J19_0_0" index="0" speed="13.89" length="9.73" shape="-198.30,-304.45 -197.61,-307.17 -197.69,-309.13 -198.19,-311.13 -198.77,-313.97"/>
    </edge>
    <edge id=":J19_1" function="internal">
        <lane id=":J19_1_0" index="0" speed="13.89" length="9.71" shape="-198.30,-304.45 -194.95,-313.56"/>
    </edge>
    <edge id=":J2_0" function="internal">
        <lane id=":J2_0_0" index="0" speed="13.89" length="10.73" shape="-74.48,-34.91 -76.94,-36.75 -78.59,-38.32 -80.06,-40.07 -82.00,-42.48"/>
    </edge>
    <edge id=":J2_1" function="internal">
        <lane id=":J2_1_0" index="0" speed="7.00" length="9.28" shape="-74.48,-34.91 -76.02,-36.45 -76.74,-38.35 -76.63,-40.62 -75.70,-43.26"/>
    </edge>
    <edge id=":J20_0" function="internal">
        <lane id=":J20_0_0" index="0" speed="9.75" length="1.63" shape="77.13,-302.66 76.33,-304.08"/>
    </edge>
    <edge id=":J20_1" function="internal">
        <lane id=":J20_1_0" index="0" speed="7.59" length="1.64" shape="77.13,-302.66 76.38,-304.12"/>
    </edge>
    <edge id=":J20_4" function="internal">
        <lane id=":J20_4_0" index="0" speed="9.75" length="10.72" shape="76.33,-304.08 76.17,-304.36 75.79,-306.93 76.01,-310.36 76.82,-314.65"/>
    </edge>
    <edge id=":J20_5" function="internal">
        <lane id=":J20_5_0" index="0" speed="7.59" length="9.99" shape="76.38,-304.12 76.23,-304.40 76.45,-306.71 77.78,-309.56 80.23,-312.98"/>
    </edge>
    <edge id=":J20_2" function="internal">
        <lane id=":J20_2_0" index="0" speed="13.89" length="13.37" shape="72.86,-301.91 74.20,-305.13 75.20,-308.16 76.02,-311.24 76.82,-314.65"/>
    </edge>
    <edge id=":J20_3" function="internal">
        <lane id=":J20_3_0" index="0" speed="13.89" length="13.34" shape="72.86,-301.91 74.45,-305.01 76.14,-307.69 78.04,-310.25 80.23,-312.98"/>
    </edge>
    <edge id=":J21_0" function="internal">
        <lane id=":J21_0_0" index="0" speed="13.89" length="2.17" shape="16.90,-303.31 16.83,-305.48"/>
    </edge>
    <edge id=":J21_1" function="internal">
        <lane id=":J21_1_0" index="0" speed="12.59" length="2.28" shape="16.90,-303.31 16.97,-305.59"/>
    </edge>
    <edge id=":J21_4" function="internal">
        <lane id=":J21_4_0" index="0" speed="13.89" length="19.67" shape="16.83,-305.48 16.81,-305.83 17.92,-310.09 20.23,-316.09 23.74,-323.82"/>
    </edge>
    <edge id=":J21_5" function="internal">
        <lane id=":J21_5_0" index="0" speed="12.59" length="19.21" shape="16.97,-305.59 16.97,-305.79 18.63,-309.73 21.88,-315.15 26.71,-322.04"/>
    </edge>
    <edge id=":J21_2" function="internal">
        <lane id=":J21_2_0" index="0" speed="13.89" length="22.65" shape="12.66,-304.13 15.56,-308.08 18.70,-313.62 21.59,-319.34 23.74,-323.82"/>
    </edge>
    <edge id=":J21_3" function="internal">
        <lane id=":J21_3_0" index="0" speed="13.89" length="22.78" shape="12.66,-304.13 15.91,-307.87 19.88,-312.91 23.76,-318.04 26.71,-322.04"/>
    </edge>
    <edge id=":J22_0" function="internal">
        <lane id=":J22_0_0" index="0" speed="13.89" length="17.89" shape="112.28,-301.82 111.42,-305.85 111.33,-310.58 111.61,-315.37 111.83,-319.60"/>
    </edge>
    <edge id=":J22_1" function="internal">
        <lane id=":J22_1_0" index="0" speed="13.89" length="17.84" shape="112.28,-301.82 111.81,-305.80 112.66,-310.41 114.08,-315.05 115.32,-319.16"/>
    </edge>
    <edge id=":J23_0" function="internal">
        <lane id=":J23_0_0" index="0" speed="13.89" length="10.99" shape="158.12,-302.72 158.89,-305.66 158.68,-307.95 157.94,-310.30 157.11,-313.38"/>
    </edge>
    <edge id=":J23_1" function="internal">
        <lane id=":J23_1_0" index="0" speed="13.89" length="10.99" shape="158.12,-302.72 159.18,-305.65 159.78,-307.94 160.23,-310.28 160.85,-313.34"/>
    </edge>
    <edge id=":J24_0" function="internal">
        <lane id=":J24_0_0" index="0" speed="13.89" length="7.85" shape="-47.17,-355.05 -47.75,-357.31 -48.19,-358.88 -48.38,-360.45 -48.21,-362.75"/>
    </edge>
    <edge id=":J24_1" function="internal">
        <lane id=":J24_1_0" index="0" speed="13.89" length="7.89" shape="-51.13,-355.48 -50.06,-357.57 -49.25,-358.99 -48.65,-360.47 -48.21,-362.75"/>
    </edge>
    <edge id=":J25_0" function="internal">
        <lane id=":J25_0_0" index="0" speed="11.79" length="8.67" shape="262.92,-294.85 263.37,-297.28 263.08,-298.99 262.32,-300.69 261.33,-303.09"/>
    </edge>
    <edge id=":J25_1" function="internal">
        <lane id=":J25_1_0" index="0" speed="13.89" length="8.69" shape="262.92,-294.85 265.27,-303.21"/>
    </edge>
    <edge id=":J26_0" function="internal">
        <lane id=":J26_0_0" index="0" speed="13.89" length="11.97" shape="203.56,-298.78 201.72,-301.42 200.79,-303.92 200.26,-306.63 199.64,-309.89"/>
    </edge>
    <edge id=":J26_1" function="internal">
        <lane id=":J26_1_0" index="0" speed="9.31" length="2.90" shape="203.56,-298.78 202.77,-300.40 202.68,-301.49"/>
    </edge>
    <edge id=":J26_4" function="internal">
        <lane id=":J26_4_0" index="0" speed="9.31" length="8.40" shape="202.68,-301.49 202.58,-302.77 202.98,-305.88 203.98,-309.73"/>
    </edge>
    <edge id=":J26_2" function="internal">
        <lane id=":J26_2_0" index="0" speed="8.92" length="11.34" shape="197.85,-299.23 199.29,-301.03 200.07,-303.40 200.18,-306.36 199.64,-309.89"/>
    </edge>
    <edge id=":J26_3" function="internal">
        <lane id=":J26_3_0" index="0" speed="13.89" length="12.38" shape="197.85,-299.23 200.21,-301.56 201.79,-303.90 202.94,-306.53 203.98,-309.73"/>
    </edge>
    <edge id=":J27_0" function="internal">
        <lane id=":J27_0_0" index="0" speed="13.89" length="6.36" shape="-143.81,-359.17 -143.87,-361.03 -144.13,-362.29 -144.59,-363.52 -145.26,-365.29"/>
    </edge>
    <edge id=":J27_1" function="internal">
        <lane id=":J27_1_0" index="0" speed="7.33" length="5.75" shape="-143.81,-359.17 -143.62,-360.54 -143.10,-361.80 -142.26,-362.96 -141.10,-364.02"/>
    </edge>
    <edge id=":J28_0" function="internal">
        <lane id=":J28_0_0" index="0" speed="10.99" length="9.44" shape="-116.20,-382.85 -113.82,-384.39 -112.05,-385.46 -110.77,-386.84 -109.88,-389.33"/>
    </edge>
    <edge id=":J28_1" function="internal">
        <lane id=":J28_1_0" index="0" speed="13.89" length="9.48" shape="-113.16,-380.47 -112.00,-383.04 -111.20,-384.80 -110.56,-386.61 -109.88,-389.33"/>
    </edge>
    <edge id=":J29_0" function="internal">
        <lane id=":J29_0_0" index="0" speed="13.89" length="0.42" shape="-204.94,-357.29 -204.96,-357.42 -204.97,-357.50 -204.96,-357.59 -204.95,-357.71"/>
    </edge>
    <edge id=":J3_0" function="internal">
        <lane id=":J3_0_0" index="0" speed="6.30" length="10.89" shape="159.25,-40.79 160.99,-42.76 161.17,-44.80 159.77,-46.90 156.80,-49.08"/>
    </edge>
    <edge id=":J3_1" function="internal">
        <lane id=":J3_1_0" index="0" speed="8.01" length="13.32" shape="159.25,-40.79 161.48,-43.19 162.38,-45.97 161.97,-49.13 160.24,-52.66"/>
    </edge>
    <edge id=":J3_2" function="internal">
        <lane id=":J3_2_0" index="0" speed="13.89" length="13.90" shape="159.25,-40.79 162.03,-43.07 164.40,-45.49 166.36,-48.21 167.87,-51.43"/>
    </edge>
    <edge id=":J30_0" function="internal">
        <lane id=":J30_0_0" index="0" speed="13.89" length="0.26" shape="-177.51,-360.55 -177.43,-360.80"/>
    </edge>
    <edge id=":J31_0" function="internal">
        <lane id=":J31_0_0" index="0" speed="13.89" length="0.63" shape="-280.72,-359.76 -280.79,-359.94 -280.82,-360.06 -280.84,-360.19 -280.84,-360.37"/>
    </edge>
    <edge id=":J32_0" function="internal">
        <lane id=":J32_0_0" index="0" speed="13.89" length="0.61" shape="-234.39,-361.23 -234.33,-361.40 -234.29,-361.52 -234.28,-361.64 -234.27,-361.82"/>
    </edge>
    <edge id=":J33_0" function="internal">
        <lane id=":J33_0_0" index="0" speed="13.89" length="0.72" shape="-11.62,-365.79 -11.54,-365.99 -11.50,-366.13 -11.49,-366.27 -11.50,-366.49"/>
    </edge>
    <edge id=":J34_0" function="internal">
        <lane id=":J34_0_0" index="0" speed="13.89" length="0.86" shape="-90.40,-362.33 -90.47,-362.57 -90.50,-362.75 -90.48,-362.92 -90.42,-363.17"/>
    </edge>
    <edge id=":J35_0" function="internal">
        <lane id=":J35_0_0" index="0" speed="4.12" length="1.40" shape="19.15,-366.64 19.36,-366.93 19.50,-367.24 19.56,-367.58 19.55,-367.94"/>
    </edge>
    <edge id=":J36_0" function="internal">
        <lane id=":J36_0_0" index="0" speed="13.89" length="0.95" shape="45.42,-369.27 45.54,-369.52 45.59,-369.71 45.59,-369.90 45.56,-370.18"/>
    </edge>
    <edge id=":J37_0" function="internal">
        <lane id=":J37_0_0" index="0" speed="4.25" length="1.23" shape="61.51,-369.14 61.71,-369.43 61.82,-369.67 61.84,-369.92 61.81,-370.28"/>
    </edge>
    <edge id=":J38_0" function="internal">
        <lane id=":J38_0_0" index="0" speed="13.89" length="0.60" shape="89.11,-367.11 89.15,-367.28 89.17,-367.40 89.16,-367.52 89.14,-367.70"/>
    </edge>
    <edge id=":J39_0" function="internal">
        <lane id=":J39_0_0" index="0" speed="4.19" length="1.27" shape="100.31,-337.68 100.49,-337.95 100.61,-338.24 100.67,-338.54 100.66,-338.87"/>
    </edge>
    <edge id=":J4_0" function="internal">
        <lane id=":J4_0_0" index="0" speed="13.89" length="9.28" shape="-163.59,-141.30 -165.32,-143.44 -166.42,-144.97 -167.46,-146.55 -168.96,-148.86"/>
    </edge>
    <edge id=":J4_1" function="internal">
        <lane id=":J4_1_0" index="0" speed="7.24" length="8.27" shape="-163.59,-141.30 -164.50,-142.90 -164.76,-144.73 -164.37,-146.78 -163.33,-149.04"/>
    </edge>
    <edge id=":J40_0" function="internal">
        <lane id=":J40_0_0" index="0" speed="13.89" length="0.17" shape="115.03,-553.09 115.03,-553.14 115.03,-553.18 115.03,-553.21 115.02,-553.26"/>
    </edge>
    <edge id=":J41_0" function="internal">
        <lane id=":J41_0_0" index="0" speed="13.89" length="0.34" shape="126.66,-365.59 126.69,-365.69 126.70,-365.76 126.71,-365.83 126.71,-365.93"/>
    </edge>
    <edge id=":J42_0" function="internal">
        <lane id=":J42_0_0" index="0" speed="13.89" length="0.37" shape="146.97,-364.45 146.95,-364.56 146.94,-364.63 146.94,-364.71 146.94,-364.82"/>
    </edge>
    <edge id=":J43_0" function="internal">
        <lane id=":J43_0_0" index="0" speed="13.89" length="0.37" shape="172.27,-365.14 172.29,-365.25 172.30,-365.32 172.31,-365.40 172.31,-365.51"/>
    </edge>
    <edge id=":J44_0" function="internal">
        <lane id=":J44_0_0" index="0" speed="13.89" length="0.48" shape="187.01,-364.81 186.98,-364.95 186.97,-365.05 186.97,-365.15 186.97,-365.29"/>
    </edge>
    <edge id=":J45_0" function="internal">
        <lane id=":J45_0_0" index="0" speed="13.89" length="0.35" shape="221.12,-365.30 221.15,-365.40 221.17,-365.47 221.18,-365.54 221.18,-365.64"/>
    </edge>
    <edge id=":J46_0" function="internal">
        <lane id=":J46_0_0" index="0" speed="7.16" length="10.86" shape="-235.16,-525.62 -232.92,-522.98 -230.67,-521.51 -228.41,-521.22 -226.14,-522.09"/>
    </edge>
    <edge id=":J46_1" function="internal">
        <lane id=":J46_1_0" index="0" speed="9.58" length="7.53" shape="-232.76,-513.14 -232.33,-515.48 -231.08,-517.74 -229.33,-519.62"/>
    </edge>
    <edge id=":J46_2" function="internal">
        <lane id=":J46_2_0" index="0" speed="9.58" length="4.04" shape="-229.33,-519.62 -229.02,-519.95 -226.14,-522.09"/>
    </edge>
    <edge id=":J47_0" function="internal">
        <lane id=":J47_0_0" index="0" speed="13.89" length="0.76" shape="239.93,-365.67 239.86,-365.88 239.83,-366.04 239.83,-366.19 239.86,-366.41"/>
    </edge>
    <edge id=":J48_0" function="internal">
        <lane id=":J48_0_0" index="0" speed="5.55" length="4.38" shape="-176.91,-549.86 -178.82,-549.15 -180.29,-549.63 -180.70,-550.32"/>
    </edge>
    <edge id=":J48_3" function="internal">
        <lane id=":J48_3_0" index="0" speed="5.55" length="4.07" shape="-180.70,-550.32 -181.30,-551.30 -181.87,-554.17"/>
    </edge>
    <edge id=":J48_1" function="internal">
        <lane id=":J48_1_0" index="0" speed="7.63" length="8.20" shape="-186.26,-547.71 -184.21,-549.26 -182.80,-550.85 -182.02,-552.49 -181.87,-554.17"/>
    </edge>
    <edge id=":J48_2" function="internal">
        <lane id=":J48_2_0" index="0" speed="13.89" length="10.57" shape="-182.22,-543.64 -181.84,-546.68 -181.63,-548.90 -181.63,-551.12 -181.87,-554.17"/>
    </edge>
    <edge id=":J49_0" function="internal">
        <lane id=":J49_0_0" index="0" speed="13.89" length="0.41" shape="281.65,-362.78 281.68,-362.90 281.70,-362.98 281.70,-363.06 281.71,-363.18"/>
    </edge>
    <edge id=":J5_0" function="internal">
        <lane id=":J5_0_0" index="0" speed="13.89" length="13.54" shape="-18.45,-152.02 -21.41,-153.91 -24.02,-155.85 -26.54,-157.91 -29.25,-160.17"/>
    </edge>
    <edge id=":J5_1" function="internal">
        <lane id=":J5_1_0" index="0" speed="13.89" length="3.06" shape="-18.45,-152.02 -20.84,-153.92"/>
    </edge>
    <edge id=":J5_2" function="internal">
        <lane id=":J5_2_0" index="0" speed="6.32" length="3.22" shape="-18.45,-152.02 -20.17,-153.51 -20.47,-154.40"/>
    </edge>
    <edge id=":J5_6" function="internal">
        <lane id=":J5_6_0" index="0" speed="13.89" length="10.22" shape="-20.84,-153.92 -21.11,-154.14 -22.89,-156.68 -24.22,-159.62 -25.52,-162.92"/>
    </edge>
    <edge id=":J5_7" function="internal">
        <lane id=":J5_7_0" index="0" speed="6.32" length="6.12" shape="-20.47,-154.40 -20.80,-155.33 -20.33,-157.49 -18.78,-159.98"/>
    </edge>
    <edge id=":J5_3" function="internal">
        <lane id=":J5_3_0" index="0" speed="8.11" length="11.89" shape="-24.75,-150.08 -24.21,-152.44 -24.78,-154.90 -26.46,-157.48 -29.25,-160.17"/>
    </edge>
    <edge id=":J5_4" function="internal">
        <lane id=":J5_4_0" index="0" speed="11.45" length="13.22" shape="-24.75,-150.08 -23.89,-152.79 -23.73,-155.84 -24.28,-159.21 -25.52,-162.92"/>
    </edge>
    <edge id=":J5_5" function="internal">
        <lane id=":J5_5_0" index="0" speed="13.89" length="11.59" shape="-24.75,-150.08 -23.35,-152.98 -22.12,-155.25 -20.72,-157.41 -18.78,-159.98"/>
    </edge>
    <edge id=":J50_0" function="internal">
        <lane id=":J50_0_0" index="0" speed="13.29" length="8.19" shape="-158.61,-404.42 -159.51,-406.70 -160.16,-408.30 -160.42,-409.93 -160.16,-412.28"/>
    </edge>
    <edge id=":J50_1" function="internal">
        <lane id=":J50_1_0" index="0" speed="5.27" length="3.25" shape="-156.76,-410.68 -158.69,-408.07"/>
    </edge>
    <edge id=":J50_3" function="internal">
        <lane id=":J50_3_0" index="0" speed="5.27" length="7.40" shape="-158.69,-408.07 -158.98,-407.68 -160.28,-406.95 -160.68,-408.48 -160.16,-412.28"/>
    </edge>
    <edge id=":J50_2" function="internal">
        <lane id=":J50_2_0" index="0" speed="13.89" length="8.25" shape="-162.60,-404.42 -161.78,-406.72 -161.18,-408.30 -160.69,-409.90 -160.16,-412.28"/>
    </edge>
    <edge id=":J51_0" function="internal">
        <lane id=":J51_0_0" index="0" speed="7.17" length="12.69" shape="-122.92,-574.89 -124.56,-577.46 -126.88,-578.58 -129.87,-578.28 -133.54,-576.53"/>
    </edge>
    <edge id=":J51_1" function="internal">
        <lane id=":J51_1_0" index="0" speed="12.78" length="13.72" shape="-122.92,-574.89 -124.24,-578.26 -125.23,-581.50 -125.53,-584.74 -124.83,-588.13"/>
    </edge>
    <edge id=":J51_2" function="internal">
        <lane id=":J51_2_0" index="0" speed="5.49" length="9.63" shape="-128.50,-573.03 -128.26,-576.07 -129.02,-577.66 -130.78,-577.82 -133.54,-576.53"/>
    </edge>
    <edge id=":J51_3" function="internal">
        <lane id=":J51_3_0" index="0" speed="13.89" length="15.55" shape="-128.50,-573.03 -127.76,-576.80 -126.96,-580.66 -126.01,-584.48 -124.83,-588.13"/>
    </edge>
    <edge id=":J52_0" function="internal">
        <lane id=":J52_0_0" index="0" speed="5.74" length="9.18" shape="-90.20,-479.21 -89.98,-481.92 -90.74,-483.63 -92.47,-484.34 -95.17,-484.05"/>
    </edge>
    <edge id=":J52_1" function="internal">
        <lane id=":J52_1_0" index="0" speed="13.89" length="17.18" shape="-90.20,-479.21 -89.72,-483.26 -89.86,-487.76 -90.55,-492.22 -91.71,-496.14"/>
    </edge>
    <edge id=":J52_2" function="internal">
        <lane id=":J52_2_0" index="0" speed="13.89" length="17.77" shape="-90.20,-479.21 -86.28,-496.54"/>
    </edge>
    <edge id=":J52_3" function="internal">
        <lane id=":J52_3_0" index="0" speed="8.66" length="14.14" shape="-90.20,-479.21 -88.84,-483.66 -87.02,-486.84 -84.72,-488.74 -81.95,-489.36"/>
    </edge>
    <edge id=":J53_0" function="internal">
        <lane id=":J53_0_0" index="0" speed="13.89" length="16.03" shape="-37.26,-479.13 -37.64,-483.02 -38.23,-487.09 -38.98,-491.12 -39.88,-494.93"/>
    </edge>
    <edge id=":J53_1" function="internal">
        <lane id=":J53_1_0" index="0" speed="8.57" length="12.99" shape="-37.26,-479.13 -37.23,-483.35 -36.47,-486.63 -34.98,-488.97 -32.76,-490.37"/>
    </edge>
    <edge id=":J53_2" function="internal">
        <lane id=":J53_2_0" index="0" speed="13.89" length="15.38" shape="-31.78,-482.16 -34.57,-484.72 -36.86,-487.84 -38.64,-491.31 -39.88,-494.93"/>
    </edge>
    <edge id=":J53_3" function="internal">
        <lane id=":J53_3_0" index="0" speed="6.12" length="6.97" shape="-31.78,-482.16 -34.78,-484.83 -35.95,-487.09 -35.81,-487.47"/>
    </edge>
    <edge id=":J53_8" function="internal">
        <lane id=":J53_8_0" index="0" speed="6.12" length="4.45" shape="-35.81,-487.47 -35.27,-488.94 -32.76,-490.37"/>
    </edge>
    <edge id=":J53_4" function="internal">
        <lane id=":J53_4_0" index="0" speed="6.38" length="10.38" shape="-46.11,-489.09 -42.80,-489.44 -40.66,-490.52 -39.69,-492.35 -39.88,-494.93"/>
    </edge>
    <edge id=":J53_5" function="internal">
        <lane id=":J53_5_0" index="0" speed="13.89" length="13.49" shape="-46.11,-489.09 -42.57,-489.04 -39.32,-489.09 -36.13,-489.46 -32.76,-490.37"/>
    </edge>
    <edge id=":J53_6" function="internal">
        <lane id=":J53_6_0" index="0" speed="8.69" length="12.88" shape="-44.63,-483.96 -41.88,-486.21 -40.17,-488.79 -39.51,-491.70 -39.88,-494.93"/>
    </edge>
    <edge id=":J53_7" function="internal">
        <lane id=":J53_7_0" index="0" speed="13.89" length="13.52" shape="-44.63,-483.96 -41.66,-485.86 -38.88,-487.54 -36.01,-489.04 -32.76,-490.37"/>
    </edge>
    <edge id=":J55_0" function="internal">
        <lane id=":J55_0_0" index="0" speed="13.89" length="11.49" shape="1.61,-494.67 1.17,-497.84 0.92,-500.37 0.85,-502.91 0.97,-506.11"/>
    </edge>
    <edge id=":J55_1" function="internal">
        <lane id=":J55_1_0" index="0" speed="8.04" length="6.77" shape="5.89,-497.87 3.61,-499.28 2.03,-501.13 1.43,-502.67"/>
    </edge>
    <edge id=":J55_3" function="internal">
        <lane id=":J55_3_0" index="0" speed="8.04" length="3.50" shape="1.43,-502.67 1.15,-503.41 0.97,-506.11"/>
    </edge>
    <edge id=":J55_2" function="internal">
        <lane id=":J55_2_0" index="0" speed="7.11" length="7.61" shape="-3.81,-500.78 -1.80,-501.73 -0.33,-502.93 0.59,-504.39 0.97,-506.11"/>
    </edge>
    <edge id=":J56_0" function="internal">
        <lane id=":J56_0_0" index="0" speed="13.89" length="15.81" shape="-62.65,-581.56 -63.50,-585.33 -64.16,-589.31 -64.60,-593.32 -64.81,-597.19"/>
    </edge>
    <edge id=":J56_1" function="internal">
        <lane id=":J56_1_0" index="0" speed="13.21" length="15.14" shape="-62.65,-581.56 -63.27,-585.28 -63.22,-589.08 -62.48,-592.81 -61.05,-596.29"/>
    </edge>
    <edge id=":J56_2" function="internal">
        <lane id=":J56_2_0" index="0" speed="8.79" length="3.14" shape="-60.07,-586.48 -62.06,-587.78 -62.48,-588.41"/>
    </edge>
    <edge id=":J56_3" function="internal">
        <lane id=":J56_3_0" index="0" speed="6.90" length="3.19" shape="-60.07,-586.48 -62.09,-587.82 -62.38,-588.53"/>
    </edge>
    <edge id=":J56_6" function="internal">
        <lane id=":J56_6_0" index="0" speed="8.79" length="9.23" shape="-62.48,-588.41 -63.52,-589.99 -64.43,-593.13 -64.81,-597.19"/>
    </edge>
    <edge id=":J56_7" function="internal">
        <lane id=":J56_7_0" index="0" speed="6.90" length="8.21" shape="-62.38,-588.53 -62.93,-589.89 -62.59,-592.72 -61.05,-596.29"/>
    </edge>
    <edge id=":J56_4" function="internal">
        <lane id=":J56_4_0" index="0" speed="13.89" length="15.81" shape="-66.47,-581.50 -65.72,-585.30 -65.17,-589.30 -64.86,-593.31 -64.81,-597.19"/>
    </edge>
    <edge id=":J56_5" function="internal">
        <lane id=":J56_5_0" index="0" speed="13.89" length="15.79" shape="-66.47,-581.50 -65.48,-585.25 -64.23,-589.07 -62.74,-592.81 -61.05,-596.29"/>
    </edge>