<?xml version="1.0" encoding="UTF-8"?>

<!-- generated on 2024-03-20 15:41:40 by Eclipse SUMO netedit Version 1.18.0
<configuration xmlns:xsi="http://www.w3.org/2001/XMLSchema-instance" xsi:noNamespaceSchemaLocation="http://sumo.dlr.de/xsd/neteditConfiguration.xsd">

    <input>
        <sumo-net-file value="/Users/cianmurphy/code_directories/sumo-routing/exp3/sim_files/tree_23.net.xml"/>
    </input>

    <output>
        <output-file value="/Users/cianmurphy/code_directories/sumo-routing/exp3/sim_files/tree_23.net.xml"/>
    </output>

    <processing>
        <geometry.min-radius.fix.railways value="false"/>
        <geometry.max-grade.fix value="false"/>
        <offset.disable-normalization value="true"/>
        <lefthand value="0"/>
    </processing>

    <junctions>
        <no-turnarounds value="true"/>
        <junctions.corner-detail value="5"/>
        <junctions.limit-turn-speed value="5.50"/>
        <rectangular-lane-cut value="0"/>
    </junctions>

    <pedestrian>
        <walkingareas value="0"/>
    </pedestrian>

</configuration>
-->

<net version="1.16" junctionCornerDetail="5" limitTurnSpeed="5.50" xmlns:xsi="http://www.w3.org/2001/XMLSchema-instance" xsi:noNamespaceSchemaLocation="http://sumo.dlr.de/xsd/net_file.xsd">

    <location netOffset="0.00,0.00" convBoundary="-171.68,-366.99,244.17,85.06" origBoundary="-10000000000.00,-10000000000.00,10000000000.00,10000000000.00" projParameter="!"/>

    <edge id=":J1_0" function="internal">
        <lane id=":J1_0_0" index="0" speed="12.76" length="6.07" shape="45.08,48.92 44.92,47.18 44.46,46.04 43.75,44.97 42.83,43.41"/>
    </edge>
    <edge id=":J1_1" function="internal">
        <lane id=":J1_1_0" index="0" speed="11.44" length="5.90" shape="45.08,48.92 45.19,47.21 45.54,46.07 46.16,45.00 47.07,43.50"/>
    </edge>
    <edge id=":J10_0" function="internal">
        <lane id=":J10_0_0" index="0" speed="13.89" length="8.67" shape="9.01,-230.49 8.41,-232.99 7.89,-234.67 7.31,-236.34 6.49,-238.78"/>
    </edge>
    <edge id=":J10_1" function="internal">
        <lane id=":J10_1_0" index="0" speed="13.89" length="15.51" shape="9.01,-230.49 8.87,-234.21 9.73,-238.01 11.03,-241.80 12.26,-245.49"/>
    </edge>
    <edge id=":J10_2" function="internal">
        <lane id=":J10_2_0" index="0" speed="13.15" length="15.45" shape="9.01,-230.49 9.21,-234.07 10.90,-237.51 13.27,-240.83 15.54,-244.06"/>
    </edge>
    <edge id=":J11_0" function="internal">
        <lane id=":J11_0_0" index="0" speed="13.89" length="13.30" shape="60.55,-219.96 59.54,-223.29 58.77,-226.36 58.16,-229.47 57.61,-232.91"/>
    </edge>
    <edge id=":J11_1" function="internal">
        <lane id=":J11_1_0" index="0" speed="12.08" length="2.60" shape="60.55,-219.96 59.93,-222.48"/>
    </edge>
    <edge id=":J11_4" function="internal">
        <lane id=":J11_4_0" index="0" speed="12.08" length="10.18" shape="59.93,-222.48 59.74,-223.26 59.64,-226.23 60.23,-229.16 61.50,-232.33"/>
    </edge>
    <edge id=":J11_2" function="internal">
        <lane id=":J11_2_0" index="0" speed="13.89" length="13.13" shape="56.57,-219.97 57.50,-223.29 57.96,-226.36 57.98,-229.47 57.61,-232.91"/>
    </edge>
    <edge id=":J11_3" function="internal">
        <lane id=":J11_3_0" index="0" speed="13.89" length="13.32" shape="56.57,-219.97 57.71,-223.26 58.82,-226.23 60.05,-229.16 61.50,-232.33"/>
    </edge>
    <edge id=":J12_0" function="internal">
        <lane id=":J12_0_0" index="0" speed="10.96" length="7.93" shape="189.30,-231.23 190.08,-233.35 190.09,-234.94 189.66,-236.59 189.09,-238.90"/>
    </edge>
    <edge id=":J12_1" function="internal">
        <lane id=":J12_1_0" index="0" speed="13.89" length="7.96" shape="189.30,-231.23 193.07,-238.24"/>
    </edge>
    <edge id=":J13_0" function="internal">
        <lane id=":J13_0_0" index="0" speed="13.89" length="22.26" shape="117.84,-224.90 110.53,-245.92"/>
    </edge>
    <edge id=":J13_1" function="internal">
        <lane id=":J13_1_0" index="0" speed="13.89" length="2.20" shape="117.84,-224.90 117.32,-227.04"/>
    </edge>
    <edge id=":J13_2" function="internal">
        <lane id=":J13_2_0" index="0" speed="13.89" length="2.48" shape="117.84,-224.90 117.51,-227.36"/>
    </edge>
    <edge id=":J13_3" function="internal">
        <lane id=":J13_3_0" index="0" speed="11.10" length="2.50" shape="117.84,-224.90 117.52,-227.37"/>
    </edge>
    <edge id=":J13_8" function="internal">
        <lane id=":J13_8_0" index="0" speed="13.89" length="20.00" shape="117.32,-227.04 116.69,-229.62 115.57,-235.75 114.61,-241.91 113.94,-246.74"/>
    </edge>
    <edge id=":J13_9" function="internal">
        <lane id=":J13_9_0" index="0" speed="13.89" length="14.89" shape="117.51,-227.36 117.30,-228.91 117.72,-233.43 118.78,-237.92 120.14,-241.86"/>
    </edge>
    <edge id=":J13_10" function="internal">
        <lane id=":J13_10_0" index="0" speed="11.10" length="14.18" shape="117.52,-227.37 117.39,-228.33 118.15,-231.97 120.10,-235.84 123.25,-239.92"/>
    </edge>
    <edge id=":J13_4" function="internal">
        <lane id=":J13_4_0" index="0" speed="13.89" length="21.48" shape="113.88,-224.90 114.24,-229.54 113.41,-235.43 111.98,-241.32 110.53,-245.92"/>
    </edge>
    <edge id=":J13_5" function="internal">
        <lane id=":J13_5_0" index="0" speed="13.89" length="21.93" shape="113.88,-224.90 114.62,-229.63 114.72,-235.75 114.41,-241.91 113.94,-246.74"/>
    </edge>
    <edge id=":J13_6" function="internal">
        <lane id=":J13_6_0" index="0" speed="13.89" length="18.07" shape="113.88,-224.90 120.14,-241.86"/>
    </edge>
    <edge id=":J13_7" function="internal">
        <lane id=":J13_7_0" index="0" speed="13.89" length="17.79" shape="113.88,-224.90 115.52,-228.74 117.89,-232.80 120.60,-236.67 123.25,-239.92"/>
    </edge>
    <edge id=":J15_0" function="internal">
        <lane id=":J15_0_0" index="0" speed="13.89" length="11.04" shape="-61.96,-292.32 -63.10,-295.23 -63.81,-297.50 -64.35,-299.83 -65.00,-302.90"/>
    </edge>
    <edge id=":J15_1" function="internal">
        <lane id=":J15_1_0" index="0" speed="10.19" length="2.27" shape="-61.96,-292.32 -62.54,-294.51"/>
    </edge>
    <edge id=":J15_4" function="internal">
        <lane id=":J15_4_0" index="0" speed="10.19" length="8.19" shape="-62.54,-294.51 -62.56,-296.92 -62.01,-299.56 -60.88,-302.43"/>
    </edge>
    <edge id=":J15_2" function="internal">
        <lane id=":J15_2_0" index="0" speed="10.43" length="10.51" shape="-66.40,-292.77 -65.28,-294.90 -64.68,-297.30 -64.59,-299.96 -65.00,-302.90"/>
    </edge>
    <edge id=":J15_3" function="internal">
        <lane id=":J15_3_0" index="0" speed="13.89" length="11.14" shape="-66.40,-292.77 -64.64,-295.38 -63.38,-297.45 -62.25,-299.59 -60.88,-302.43"/>
    </edge>
    <edge id=":J16_0" function="internal">
        <lane id=":J16_0_0" index="0" speed="13.89" length="20.66" shape="-10.49,-291.55 -11.61,-296.04 -12.63,-301.64 -13.46,-307.28 -14.03,-311.89"/>
    </edge>
    <edge id=":J16_1" function="internal">
        <lane id=":J16_1_0" index="0" speed="13.89" length="3.51" shape="-10.49,-291.55 -11.07,-295.02"/>
    </edge>
    <edge id=":J16_4" function="internal">
        <lane id=":J16_4_0" index="0" speed="13.89" length="16.86" shape="-11.07,-295.02 -11.24,-296.03 -11.33,-301.62 -11.00,-307.24 -10.47,-311.82"/>
    </edge>
    <edge id=":J16_2" function="internal">
        <lane id=":J16_2_0" index="0" speed="13.89" length="20.48" shape="-14.43,-291.49 -13.71,-296.00 -13.51,-301.63 -13.67,-307.28 -14.03,-311.89"/>
    </edge>
    <edge id=":J16_3" function="internal">
        <lane id=":J16_3_0" index="0" speed="13.89" length="20.72" shape="-14.43,-291.49 -13.33,-296.00 -12.21,-301.60 -11.20,-307.23 -10.47,-311.82"/>
    </edge>
    <edge id=":J17_0" function="internal">
        <lane id=":J17_0_0" index="0" speed="13.62" length="15.21" shape="26.84,-297.91 26.90,-301.49 25.56,-304.99 23.56,-308.43 21.64,-311.83"/>
    </edge>
    <edge id=":J17_1" function="internal">
        <lane id=":J17_1_0" index="0" speed="13.89" length="15.29" shape="26.84,-297.91 27.25,-301.61 26.79,-305.40 25.89,-309.21 25.03,-312.95"/>
    </edge>
    <edge id=":J17_2" function="internal">
        <lane id=":J17_2_0" index="0" speed="13.89" length="12.69" shape="26.84,-297.91 27.66,-301.20 28.22,-304.10 28.68,-307.02 29.21,-310.37"/>
    </edge>
    <edge id=":J18_0" function="internal">
        <lane id=":J18_0_0" index="0" speed="13.89" length="13.40" shape="-144.85,-301.75 -150.73,-313.79"/>
    </edge>
    <edge id=":J18_1" function="internal">
        <lane id=":J18_1_0" index="0" speed="13.89" length="13.41" shape="-144.85,-301.75 -146.05,-304.99 -146.61,-308.13 -146.89,-311.35 -147.26,-314.86"/>
    </edge>
    <edge id=":J19_0" function="internal">
        <lane id=":J19_0_0" index="0" speed="13.89" length="13.75" shape="-94.02,-302.32 -93.89,-305.76 -94.75,-308.92 -96.10,-312.05 -97.47,-315.40"/>
    </edge>
    <edge id=":J19_1" function="internal">
        <lane id=":J19_1_0" index="0" speed="13.89" length="13.78" shape="-94.02,-302.32 -93.55,-305.82 -93.52,-309.14 -93.72,-312.48 -93.92,-316.05"/>
    </edge>
    <edge id=":J2_0" function="internal">
        <lane id=":J2_0_0" index="0" speed="13.89" length="7.64" shape="-5.32,-50.76 -9.23,-57.33"/>
    </edge>
    <edge id=":J2_1" function="internal">
        <lane id=":J2_1_0" index="0" speed="8.30" length="7.16" shape="-5.32,-50.76 -5.75,-52.11 -5.79,-53.71 -5.43,-55.57 -4.68,-57.69"/>
    </edge>
    <edge id=":J20_0" function="internal">
        <lane id=":J20_0_0" index="0" speed="13.89" length="16.38" shape="93.94,-292.00 92.79,-295.79 91.85,-299.90 91.07,-304.06 90.42,-307.98"/>
    </edge>
    <edge id=":J20_1" function="internal">
        <lane id=":J20_1_0" index="0" speed="13.89" length="2.78" shape="93.94,-292.00 93.36,-294.72"/>
    </edge>
    <edge id=":J20_4" function="internal">
        <lane id=":J20_4_0" index="0" speed="13.89" length="13.35" shape="93.36,-294.72 93.13,-295.79 93.06,-299.90 93.46,-304.06 94.07,-307.98"/>
    </edge>
    <edge id=":J20_2" function="internal">
        <lane id=":J20_2_0" index="0" speed="13.89" length="16.00" shape="89.84,-292.20 90.95,-295.88 91.24,-299.93 90.97,-304.07 90.42,-307.98"/>
    </edge>
    <edge id=":J20_3" function="internal">
        <lane id=":J20_3_0" index="0" speed="13.89" length="16.38" shape="89.84,-292.20 91.29,-295.88 92.45,-299.93 93.36,-304.07 94.07,-307.98"/>
    </edge>
    <edge id=":J21_0" function="internal">
        <lane id=":J21_0_0" index="0" speed="13.89" length="18.64" shape="48.85,-291.44 48.43,-295.73 48.24,-300.73 48.21,-305.74 48.26,-310.06"/>
    </edge>
    <edge id=":J21_1" function="internal">
        <lane id=":J21_1_0" index="0" speed="13.89" length="3.16" shape="48.85,-291.44 48.80,-294.60"/>
    </edge>
    <edge id=":J21_4" function="internal">
        <lane id=":J21_4_0" index="0" speed="13.89" length="15.25" shape="48.80,-294.60 48.79,-295.68 49.50,-300.53 50.62,-305.36 51.80,-309.50"/>
    </edge>
    <edge id=":J21_2" function="internal">
        <lane id=":J21_2_0" index="0" speed="13.89" length="18.28" shape="44.90,-292.24 46.51,-296.12 47.52,-300.88 48.06,-305.77 48.26,-310.06"/>
    </edge>
    <edge id=":J21_3" function="internal">
        <lane id=":J21_3_0" index="0" speed="13.89" length="18.63" shape="44.90,-292.24 46.87,-296.06 48.78,-300.68 50.47,-305.39 51.80,-309.50"/>
    </edge>
    <edge id=":J22_0" function="internal">
        <lane id=":J22_0_0" index="0" speed="13.89" length="17.80" shape="108.31,-290.74 108.06,-294.91 108.14,-299.61 108.36,-304.33 108.55,-308.52"/>
    </edge>
    <edge id=":J22_1" function="internal">
        <lane id=":J22_1_0" index="0" speed="13.89" length="17.78" shape="108.31,-290.74 108.45,-294.85 109.47,-299.43 110.84,-303.98 112.03,-308.03"/>
    </edge>
    <edge id=":J23_0" function="internal">
        <lane id=":J23_0_0" index="0" speed="13.89" length="13.19" shape="146.34,-306.97 147.10,-310.25 146.91,-313.33 146.25,-316.47 145.60,-319.93"/>
    </edge>
    <edge id=":J23_1" function="internal">
        <lane id=":J23_1_0" index="0" speed="13.89" length="13.21" shape="146.34,-306.97 147.45,-310.24 148.13,-313.29 148.65,-316.40 149.23,-319.82"/>
    </edge>
    <edge id=":J25_0" function="internal">
        <lane id=":J25_0_0" index="0" speed="10.56" length="9.99" shape="226.41,-297.44 227.43,-300.02 227.30,-302.01 226.51,-304.08 225.52,-306.91"/>
    </edge>
    <edge id=":J25_1" function="internal">
        <lane id=":J25_1_0" index="0" speed="13.89" length="10.07" shape="226.41,-297.44 227.75,-300.08 228.40,-302.01 228.81,-304.04 229.42,-306.97"/>
    </edge>
    <edge id=":J26_0" function="internal">
        <lane id=":J26_0_0" index="0" speed="13.89" length="18.83" shape="178.43,-295.58 175.97,-314.25"/>
    </edge>
    <edge id=":J26_1" function="internal">
        <lane id=":J26_1_0" index="0" speed="13.89" length="3.42" shape="178.43,-295.58 178.19,-298.99"/>
    </edge>
    <edge id=":J26_4" function="internal">
        <lane id=":J26_4_0" index="0" speed="13.89" length="15.30" shape="178.19,-298.99 178.13,-299.87 178.41,-304.88 179.00,-309.90 179.60,-314.21"/>
    </edge>
    <edge id=":J26_2" function="internal">
        <lane id=":J26_2_0" index="0" speed="13.17" length="17.93" shape="174.14,-296.78 175.53,-299.30 176.30,-303.05 176.45,-308.04 175.97,-314.25"/>
    </edge>
    <edge id=":J26_3" function="internal">
        <lane id=":J26_3_0" index="0" speed="13.89" length="18.45" shape="174.14,-296.78 176.30,-300.38 177.86,-305.03 178.92,-309.92 179.60,-314.21"/>
    </edge>
    <edge id=":J3_0" function="internal">
        <lane id=":J3_0_0" index="0" speed="8.39" length="10.54" shape="95.12,-40.82 95.61,-42.59 95.29,-44.79 94.16,-47.42 92.22,-50.47"/>
    </edge>
    <edge id=":J3_1" function="internal">
        <lane id=":J3_1_0" index="0" speed="13.54" length="11.83" shape="95.12,-40.82 96.43,-43.75 96.84,-46.33 96.69,-49.03 96.30,-52.31"/>
    </edge>
    <edge id=":J3_2" function="internal">
        <lane id=":J3_2_0" index="0" speed="13.89" length="12.08" shape="95.12,-40.82 100.74,-51.51"/>
    </edge>
    <edge id=":J4_0" function="internal">
        <lane id=":J4_0_0" index="0" speed="13.89" length="8.23" shape="-59.55,-138.05 -63.58,-145.22"/>
    </edge>
    <edge id=":J4_1" function="internal">
        <lane id=":J4_1_0" index="0" speed="8.65" length="7.78" shape="-59.55,-138.05 -60.05,-139.35 -60.15,-141.05 -59.87,-143.14 -59.19,-145.63"/>
    </edge>
    <edge id=":J5_0" function="internal">
        <lane id=":J5_0_0" index="0" speed="13.89" length="14.48" shape="32.26,-134.06 23.76,-145.79"/>
    </edge>
    <edge id=":J5_1" function="internal">
        <lane id=":J5_1_0" index="0" speed="13.89" length="2.96" shape="32.26,-134.06 30.76,-136.62"/>
    </edge>
    <edge id=":J5_2" function="internal">
        <lane id=":J5_2_0" index="0" speed="10.26" length="3.30" shape="32.26,-134.06 31.14,-136.35 31.03,-137.09"/>
    </edge>
    <edge id=":J5_6" function="internal">
        <lane id=":J5_6_0" index="0" speed="13.89" length="11.37" shape="30.76,-136.62 30.43,-137.18 29.17,-140.45 28.25,-143.87 27.45,-147.45"/>
    </edge>
    <edge id=":J5_7" function="internal">
        <lane id=":J5_7_0" index="0" speed="10.26" length="9.20" shape="31.03,-137.09 30.72,-139.12 31.00,-142.39 31.98,-146.13"/>
    </edge>
    <edge id=":J5_3" function="internal">
        <lane id=":J5_3_0" index="0" speed="9.99" length="13.30" shape="27.29,-133.50 27.81,-136.04 27.40,-138.93 26.05,-142.18 23.76,-145.79"/>
    </edge>
    <edge id=":J5_4" function="internal">
        <lane id=":J5_4_0" index="0" speed="13.89" length="14.19" shape="27.29,-133.50 28.29,-136.94 28.51,-140.38 28.16,-143.86 27.45,-147.45"/>
    </edge>
    <edge id=":J5_5" function="internal">
        <lane id=":J5_5_0" index="0" speed="13.89" length="13.47" shape="27.29,-133.50 31.98,-146.13"/>
    </edge>
    <edge id=":J6_0" function="internal">
        <lane id=":J6_0_0" index="0" speed="9.43" length="7.77" shape="143.65,-137.44 144.40,-139.50 144.35,-141.06 143.78,-142.66 142.97,-144.84"/>
    </edge>
    <edge id=":J6_1" function="internal">
        <lane id=":J6_1_0" index="0" speed="13.89" length="7.89" shape="143.65,-137.44 147.13,-144.53"/>
    </edge>
    <edge id=":J7_0" function="internal">
        <lane id=":J7_0_0" index="0" speed="13.89" length="8.14" shape="87.04,-138.20 86.68,-140.57 86.22,-142.16 85.60,-143.71 84.78,-145.99"/>
    </edge>
    <edge id=":J7_1" function="internal">
        <lane id=":J7_1_0" index="0" speed="13.89" length="8.11" shape="87.04,-138.20 86.96,-140.56 87.28,-142.16 87.91,-143.73 88.75,-146.00"/>
    </edge>
    <edge id=":J8_0" function="internal">
        <lane id=":J8_0_0" index="0" speed="13.89" length="10.15" shape="-107.91,-226.76 -112.47,-235.82"/>
    </edge>
    <edge id=":J8_1" function="internal">
        <lane id=":J8_1_0" index="0" speed="13.42" length="14.18" shape="-107.91,-226.76 -108.92,-230.08 -108.74,-233.48 -107.92,-236.97 -107.01,-240.57"/>
    </edge>
    <edge id=":J8_2" function="internal">
        <lane id=":J8_2_0" index="0" speed="9.64" length="13.46" shape="-107.91,-226.76 -108.23,-228.65 -107.56,-231.31 -105.90,-234.75 -103.25,-238.96"/>
    </edge>
    <edge id=":J9_0" function="internal">
        <lane id=":J9_0_0" index="0" speed="13.89" length="10.78" shape="-30.91,-220.89 -32.66,-223.44 -33.78,-225.43 -34.72,-227.54 -35.91,-230.40"/>
    </edge>
    <edge id=":J9_1" function="internal">
        <lane id=":J9_1_0" index="0" speed="9.51" length="2.28" shape="-30.91,-220.89 -31.99,-222.90"/>
    </edge>
    <edge id=":J9_4" function="internal">
        <lane id=":J9_4_0" index="0" speed="9.51" length="7.85" shape="-31.99,-222.90 -32.51,-225.19 -32.48,-227.77 -31.90,-230.63"/>
    </edge>
    <edge id=":J9_2" function="internal">
        <lane id=":J9_2_0" index="0" speed="11.57" length="10.57" shape="-35.07,-220.23 -34.28,-223.18 -34.18,-225.37 -34.74,-227.53 -35.91,-230.40"/>
    </edge>
    <edge id=":J9_3" function="internal">
        <lane id=":J9_3_0" index="0" speed="13.89" length="10.88" shape="-35.07,-220.23 -31.90,-230.63"/>
    </edge>

    <edge id="E0" from="J0" to="J1" priority="-1">
        <lane id="E0_0" index="0" speed="13.89" length="36.14" shape="45.08,85.06 45.08,48.92"/>
    </edge>
    <edge id="E1" from="J1" to="J2" priority="-1">
        <lane id="E1_0" index="0" speed="13.89" length="105.77" shape="42.83,43.41 -5.32,-50.76"/>
    </edge>
    <edge id="E10" from="J5" to="J10" priority="-1">
        <lane id="E10_0" index="0" speed="13.89" length="85.06" shape="27.45,-147.45 9.01,-230.49"/>
    </edge>
    <edge id="E11" from="J5" to="J11" priority="-1">
        <lane id="E11_0" index="0" speed="13.89" length="77.82" shape="31.98,-146.13 56.57,-219.97"/>
    </edge>
    <edge id="E12" from="J7" to="J11" priority="-1">
        <lane id="E12_0" index="0" speed="13.89" length="77.84" shape="84.78,-145.99 60.55,-219.96"/>
    </edge>
    <edge id="E13" from="J6" to="J12" priority="-1">
        <lane id="E13_0" index="0" speed="13.89" length="96.41" shape="147.13,-144.53 189.30,-231.23"/>
    </edge>
    <edge id="E14" from="J6" to="J13" priority="-1">
        <lane id="E14_0" index="0" speed="13.89" length="83.91" shape="142.97,-144.84 117.84,-224.90"/>
    </edge>
    <edge id="E15" from="J7" to="J13" priority="-1">
        <lane id="E15_0" index="0" speed="13.89" length="82.81" shape="88.75,-146.00 113.88,-224.90"/>
    </edge>
    <edge id="E16" from="J9" to="J15" priority="-1">
        <lane id="E16_0" index="0" speed="13.89" length="67.18" shape="-35.91,-230.40 -61.96,-292.32"/>
    </edge>
    <edge id="E17" from="J9" to="J16" priority="-1">
        <lane id="E17_0" index="0" speed="13.89" length="63.31" shape="-31.90,-230.63 -14.43,-291.49"/>
    </edge>
    <edge id="E18" from="J10" to="J17" priority="-1">
        <lane id="E18_0" index="0" speed="13.89" length="54.41" shape="12.26,-245.49 26.84,-297.91"/>
    </edge>
    <edge id="E19" from="J8" to="J18" priority="-1">
        <lane id="E19_0" index="0" speed="13.89" length="73.44" shape="-112.47,-235.82 -144.85,-301.75"/>
    </edge>
    <edge id="E2" from="J1" to="J3" priority="-1">
        <lane id="E2_0" index="0" speed="13.89" length="97.06" shape="47.07,43.50 95.12,-40.82"/>
    </edge>
    <edge id="E20" from="J8" to="J19" priority="-1">
        <lane id="E20_0" index="0" speed="13.89" length="63.10" shape="-107.01,-240.57 -94.02,-302.32"/>
    </edge>
    <edge id="E21" from="J11" to="J20" priority="-1">
        <lane id="E21_0" index="0" speed="13.89" length="66.24" shape="61.50,-232.33 89.84,-292.20"/>
    </edge>
    <edge id="E22" from="J11" to="J21" priority="-1">
        <lane id="E22_0" index="0" speed="13.89" length="59.18" shape="57.61,-232.91 48.85,-291.44"/>
    </edge>
    <edge id="E23" from="J13" to="J22" priority="-1">
        <lane id="E23_0" index="0" speed="13.89" length="44.36" shape="113.94,-246.74 108.31,-290.74"/>
    </edge>
    <edge id="E24" from="J13" to="J23" priority="-1">
        <lane id="E24_0" index="0" speed="13.89" length="70.18" shape="120.14,-241.86 146.34,-306.97"/>
    </edge>
    <edge id="E27" from="J12" to="J25" priority="-1">
        <lane id="E27_0" index="0" speed="13.89" length="67.94" shape="193.07,-238.24 226.41,-297.44"/>
    </edge>
    <edge id="E28" from="J12" to="J26" priority="-1">
        <lane id="E28_0" index="0" speed="13.89" length="57.68" shape="189.09,-238.90 178.43,-295.58"/>
    </edge>
    <edge id="E3" from="J2" to="J4" priority="-1">
        <lane id="E3_0" index="0" speed="13.89" length="95.12" shape="-9.23,-57.33 -59.55,-138.05"/>
    </edge>
    <edge id="E4" from="J2" to="J5" priority="-1">
        <lane id="E4_0" index="0" speed="13.89" length="82.28" shape="-4.68,-57.69 27.29,-133.50"/>
    </edge>
    <edge id="E5" from="J3" to="J5" priority="-1">
        <lane id="E5_0" index="0" speed="13.89" length="102.87" shape="92.22,-50.47 32.26,-134.06"/>
    </edge>
    <edge id="E51" from="J5" to="J9" priority="-1">
        <lane id="E51_0" index="0" speed="13.89" length="92.90" shape="23.76,-145.79 -30.91,-220.89"/>
    </edge>
    <edge id="E52" from="J8" to="J15" priority="-1">
        <lane id="E52_0" index="0" speed="13.89" length="65.22" shape="-103.25,-238.96 -66.40,-292.77"/>
    </edge>
    <edge id="E53" from="J10" to="J21" priority="-1">
        <lane id="E53_0" index="0" speed="13.89" length="56.41" shape="15.54,-244.06 44.90,-292.24"/>
    </edge>
    <edge id="E6" from="J3" to="J6" priority="-1">
        <lane id="E6_0" index="0" speed="13.89" length="96.05" shape="100.74,-51.51 143.65,-137.44"/>
    </edge>
    <edge id="E7" from="J3" to="J7" priority="-1">
        <lane id="E7_0" index="0" speed="13.89" length="86.39" shape="96.30,-52.31 87.04,-138.20"/>
    </edge>
    <edge id="E79" from="J13" to="J26" priority="-1">
        <lane id="E79_0" index="0" speed="13.89" length="76.30" shape="123.25,-239.92 174.14,-296.78"/>
    </edge>
    <edge id="E8" from="J4" to="J8" priority="-1">
        <lane id="E8_0" index="0" speed="13.89" length="92.81" shape="-63.58,-145.22 -107.91,-226.76"/>
    </edge>
    <edge id="E80" from="J10" to="J16" priority="-1">
        <lane id="E80_0" index="0" speed="13.89" length="55.44" shape="6.49,-238.78 -10.49,-291.55"/>
    </edge>
    <edge id="E81" from="J13" to="J20" priority="-1">
        <lane id="E81_0" index="0" speed="13.89" length="48.98" shape="110.53,-245.92 93.94,-292.00"/>
    </edge>
    <edge id="E9" from="J4" to="J9" priority="-1">
        <lane id="E9_0" index="0" speed="13.89" length="78.41" shape="-59.19,-145.63 -35.07,-220.23"/>
    </edge>
    <edge id="F1" from="J18" to="J31" priority="-1">
        <lane id="F1_0" index="0" speed="13.89" length="51.06" shape="-150.73,-313.79 -173.12,-359.68"/>
    </edge>
    <edge id="F10" from="J17" to="J33" priority="-1">
        <lane id="F10_0" index="0" speed="13.89" length="54.46" shape="25.03,-312.95 14.80,-366.44"/>
    </edge>
    <edge id="F11" from="J17" to="J35" priority="-1">
        <lane id="F11_0" index="0" speed="13.89" length="53.82" shape="29.21,-310.37 38.13,-363.45"/>
    </edge>
    <edge id="F12" from="J21" to="J36" priority="-1">
        <lane id="F12_0" index="0" speed="13.89" length="55.92" shape="48.26,-310.06 49.18,-365.98"/>
    </edge>
    <edge id="F13" from="J21" to="J37" priority="-1">
        <lane id="F13_0" index="0" speed="13.89" length="60.34" shape="51.80,-309.50 69.42,-367.21"/>
    </edge>
    <edge id="F14" from="J20" to="J38" priority="-1">
        <lane id="F14_0" index="0" speed="13.89" length="58.88" shape="90.42,-307.98 80.84,-366.08"/>
    </edge>
    <edge id="F15" from="J20" to="J39" priority="-1">
        <lane id="F15_0" index="0" speed="13.89" length="59.42" shape="94.07,-307.98 103.78,-366.60"/>
    </edge>
    <edge id="F16" from="J22" to="J40" priority="-1">
        <lane id="F16_0" index="0" speed="13.89" length="56.71" shape="108.55,-308.52 110.09,-365.20"/>
    </edge>
    <edge id="F17" from="J22" to="J41" priority="-1">
        <lane id="F17_0" index="0" speed="13.89" length="59.75" shape="112.03,-308.03 126.75,-365.94"/>
    </edge>
    <edge id="F18" from="J23" to="J42" priority="-1">
        <lane id="F18_0" index="0" speed="13.89" length="45.00" shape="145.60,-319.93 139.76,-364.55"/>
    </edge>
    <edge id="F19" from="J23" to="J43" priority="-1">
        <lane id="F19_0" index="0" speed="13.89" length="46.46" shape="149.23,-319.82 157.97,-365.46"/>
    </edge>
    <edge id="F2" from="J18" to="J32" priority="-1">
        <lane id="F2_0" index="0" speed="13.89" length="46.57" shape="-147.26,-314.86 -153.81,-360.96"/>
    </edge>
    <edge id="F20" from="J26" to="J44" priority="-1">
        <lane id="F20_0" index="0" speed="13.89" length="50.27" shape="175.97,-314.25 170.21,-364.19"/>
    </edge>
    <edge id="F21" from="J26" to="J45" priority="-1">
        <lane id="F21_0" index="0" speed="13.89" length="51.69" shape="179.60,-314.21 186.84,-365.38"/>
    </edge>
    <edge id="F22" from="J25" to="J47" priority="-1">
        <lane id="F22_0" index="0" speed="13.89" length="61.76" shape="225.52,-306.91 209.55,-366.58"/>
    </edge>
    <edge id="F23" from="J25" to="J49" priority="-1">
        <lane id="F23_0" index="0" speed="13.89" length="57.67" shape="229.42,-306.97 242.61,-363.12"/>
    </edge>
    <edge id="F3" from="J19" to="J29" priority="-1">
        <lane id="F3_0" index="0" speed="13.89" length="50.48" shape="-97.47,-315.40 -113.92,-363.12"/>
    </edge>
    <edge id="F4" from="J19" to="J30" priority="-1">
        <lane id="F4_0" index="0" speed="13.89" length="47.56" shape="-93.92,-316.05 -95.36,-363.59"/>
    </edge>
    <edge id="F5" from="J15" to="J27" priority="-1">
        <lane id="F5_0" index="0" speed="13.89" length="62.69" shape="-65.00,-302.90 -78.37,-364.15"/>
    </edge>
    <edge id="F6" from="J15" to="J28" priority="-1">
        <lane id="F6_0" index="0" speed="13.89" length="68.46" shape="-60.88,-302.43 -31.63,-364.32"/>
    </edge>
    <edge id="F7" from="J16" to="J34" priority="-1">
        <lane id="F7_0" index="0" speed="13.89" length="51.02" shape="-14.03,-311.89 -19.62,-362.60"/>
    </edge>
    <edge id="F8" from="J16" to="J24" priority="-1">
        <lane id="F8_0" index="0" speed="13.89" length="44.58" shape="-10.47,-311.82 -3.98,-355.93"/>
    </edge>
    <edge id="F9" from="J17" to="J24" priority="-1">
        <lane id="F9_0" index="0" speed="13.89" length="49.70" shape="21.64,-311.83 -0.08,-356.53"/>
    </edge>

    <junction id="J0" type="dead_end" x="46.68" y="85.06" incLanes="" intLanes="" shape="46.68,85.06 43.48,85.06"/>
    <junction id="J1" type="priority" x="46.68" y="47.42" incLanes="E0_0" intLanes=":J1_0_0 :J1_1_0" shape="43.48,48.92 46.68,48.92 46.87,47.10 47.11,46.49 47.45,45.90 47.90,45.21 48.46,44.29 45.68,42.71 45.19,43.29 44.95,43.35 44.72,43.28 44.48,43.05 44.26,42.68 41.41,44.14 42.47,45.83 42.89,46.42 43.21,47.04 43.41,47.82">
        <request index="0" response="00" foes="00" cont="0"/>
        <request index="1" response="00" foes="00" cont="0"/>
    </junction>
    <junction id="J10" type="priority" x="10.25" y="-232.30" incLanes="E10_0" intLanes=":J10_0_0 :J10_1_0 :J10_2_0" shape="7.45,-230.14 10.58,-230.84 10.27,-233.70 10.74,-235.75 11.82,-237.35 13.32,-238.89 15.08,-240.72 16.91,-243.23 14.18,-244.90 13.80,-245.06 10.72,-245.92 10.02,-243.49 9.42,-241.59 8.92,-240.21 8.51,-239.37 8.21,-239.05 8.01,-239.27 4.96,-238.29 5.98,-235.30 6.35,-234.25 6.69,-233.20 7.04,-231.91">
        <request index="0" response="000" foes="000" cont="0"/>
        <request index="1" response="000" foes="000" cont="0"/>
        <request index="2" response="000" foes="000" cont="0"/>
    </junction>
    <junction id="J11" type="priority" x="60.26" y="-225.98" incLanes="E12_0 E11_0" intLanes=":J11_0_0 :J11_4_0 :J11_2_0 :J11_3_0" shape="59.03,-219.46 62.07,-220.45 61.36,-222.78 60.99,-224.60 60.95,-226.15 61.26,-227.68 61.92,-229.43 62.94,-231.65 60.05,-233.02 59.67,-232.43 59.51,-232.37 59.38,-232.47 59.27,-232.73 59.19,-233.15 56.02,-232.67 56.40,-230.07 56.60,-228.11 56.60,-226.48 56.36,-224.87 55.86,-222.97 55.05,-220.47 58.09,-219.46 58.40,-220.09 58.56,-220.17 58.72,-220.09 58.87,-219.85">
        <request index="0" response="1100" foes="1100" cont="0"/>
        <request index="1" response="1000" foes="1000" cont="1"/>
        <request index="2" response="0000" foes="0001" cont="0"/>
        <request index="3" response="0000" foes="0011" cont="0"/>
    </junction>
    <junction id="J12" type="priority" x="191.86" y="-232.83" incLanes="E13_0" intLanes=":J12_0_0 :J12_1_0" shape="194.47,-237.46 191.68,-239.03 191.24,-238.46 191.06,-238.41 190.90,-238.52 190.77,-238.78 190.66,-239.19 187.52,-238.60 188.21,-236.08 188.47,-235.16 188.56,-234.27 188.39,-233.24 187.86,-231.93 190.74,-230.53">