<?xml version="1.0" encoding="UTF-8"?>

<!-- generated on 2024-03-20 22:05:43 by Eclipse SUMO netedit Version 1.18.0
<configuration xmlns:xsi="http://www.w3.org/2001/XMLSchema-instance" xsi:noNamespaceSchemaLocation="http://sumo.dlr.de/xsd/neteditConfiguration.xsd">

    <input>
        <sumo-net-file value="/Users/cianmurphy/code_directories/sumo-routing/exp1/sim_files/tree_23.net.xml"/>
    </input>

    <output>
        <output-file value="/Users/cianmurphy/code_directories/sumo-routing/exp1/sim_files/tree_23.net.xml"/>
    </output>

    <processing>
        <geometry.min-radius.fix.railways value="false"/>
        <geometry.max-grade.fix value="false"/>
        <offset.disable-normalization value="true"/>
        <lefthand value="0"/>
    </processing>

    <junctions>
        <no-turnarounds value="true"/>
        <junctions.corner-detail value="5"/>
        <junctions.limit-turn-speed value="5.50"/>
        <rectangular-lane-cut value="0"/>
    </junctions>

    <pedestrian>
        <walkingareas value="0"/>
    </pedestrian>

</configuration>
-->

<net version="1.16" junctionCornerDetail="5" limitTurnSpeed="5.50" xmlns:xsi="http://www.w3.org/2001/XMLSchema-instance" xsi:noNamespaceSchemaLocation="http://sumo.dlr.de/xsd/net_file.xsd">

    <location netOffset="0.00,0.00" convBoundary="-107.67,-468.82,182.28,85.06" origBoundary="-10000000000.00,-10000000000.00,10000000000.00,10000000000.00" projParameter="!"/>

    <edge id=":J1_0" function="internal">
        <lane id=":J1_0_0" index="0" speed="12.70" length="6.02" shape="45.08,48.92 44.92,47.19 44.47,46.07 43.77,45.00 42.86,43.45"/>
    </edge>
    <edge id=":J1_1" function="internal">
        <lane id=":J1_1_0" index="0" speed="10.93" length="5.83" shape="45.08,48.92 45.19,47.23 45.54,46.11 46.17,45.06 47.11,43.60"/>
    </edge>
    <edge id=":J11_0" function="internal">
        <lane id=":J11_0_0" index="0" speed="5.86" length="9.13" shape="101.81,-239.16 104.43,-239.65 105.93,-240.82 106.33,-242.69 105.61,-245.24"/>
    </edge>
    <edge id=":J11_1" function="internal">
        <lane id=":J11_1_0" index="0" speed="13.89" length="12.78" shape="101.81,-239.16 114.59,-239.48"/>
    </edge>
    <edge id=":J11_2" function="internal">
        <lane id=":J11_2_0" index="0" speed="5.85" length="9.12" shape="106.25,-230.24 106.75,-232.85 106.20,-234.67 104.60,-235.71 101.96,-235.96"/>
    </edge>
    <edge id=":J11_3" function="internal">
        <lane id=":J11_3_0" index="0" speed="13.42" length="15.32" shape="106.25,-230.24 107.11,-233.94 107.29,-237.80 106.78,-241.63 105.61,-245.24"/>
    </edge>
    <edge id=":J11_4" function="internal">
        <lane id=":J11_4_0" index="0" speed="8.79" length="8.12" shape="106.25,-230.24 107.96,-234.32 109.92,-237.21 110.08,-237.34"/>
    </edge>
    <edge id=":J11_5" function="internal">
        <lane id=":J11_5_0" index="0" speed="8.79" length="5.11" shape="110.08,-237.34 112.13,-238.93 114.59,-239.48"/>
    </edge>
    <edge id=":J12_0" function="internal">
        <lane id=":J12_0_0" index="0" speed="5.71" length="9.20" shape="173.07,-237.26 175.80,-237.50 177.35,-238.53 177.72,-240.36 176.90,-242.97"/>
    </edge>
    <edge id=":J12_1" function="internal">
        <lane id=":J12_1_0" index="0" speed="6.20" length="9.86" shape="178.09,-227.93 178.51,-230.49 177.79,-232.36 175.93,-233.56 172.92,-234.06"/>
    </edge>
    <edge id=":J12_2" function="internal">
        <lane id=":J12_2_0" index="0" speed="13.13" length="15.42" shape="178.09,-227.93 178.88,-231.64 178.90,-235.53 178.21,-239.38 176.90,-242.97"/>
    </edge>
    <edge id=":J13_0" function="internal">
        <lane id=":J13_0_0" index="0" speed="13.89" length="13.10" shape="132.73,-231.09 132.06,-234.48 131.91,-237.57 132.31,-240.63 133.26,-243.96"/>
    </edge>
    <edge id=":J13_1" function="internal">
        <lane id=":J13_1_0" index="0" speed="6.42" length="10.75" shape="132.73,-231.09 132.19,-234.64 132.67,-237.13 134.16,-238.57 136.68,-238.96"/>
    </edge>
    <edge id=":J13_2" function="internal">
        <lane id=":J13_2_0" index="0" speed="6.43" length="2.54" shape="136.53,-235.76 134.06,-236.38"/>
    </edge>
    <edge id=":J13_5" function="internal">
        <lane id=":J13_5_0" index="0" speed="6.43" length="8.20" shape="134.06,-236.38 132.70,-237.95 132.43,-240.48 133.26,-243.96"/>
    </edge>
    <edge id=":J13_3" function="internal">
        <lane id=":J13_3_0" index="0" speed="7.31" length="8.84" shape="126.53,-239.25 128.85,-239.51 130.74,-240.38 132.21,-241.86 133.26,-243.96"/>
    </edge>
    <edge id=":J13_4" function="internal">
        <lane id=":J13_4_0" index="0" speed="13.89" length="10.15" shape="126.53,-239.25 136.68,-238.96"/>
    </edge>
    <edge id=":J2_0" function="internal">
        <lane id=":J2_0_0" index="0" speed="13.89" length="7.84" shape="-5.55,-51.21 -9.60,-57.93"/>
    </edge>
    <edge id=":J2_1" function="internal">
        <lane id=":J2_1_0" index="0" speed="11.26" length="7.79" shape="-5.55,-51.21 -6.37,-53.28 -6.45,-54.84 -6.10,-56.48 -5.65,-58.76"/>
    </edge>
    <edge id=":J24_0" function="internal">
        <lane id=":J24_0_0" index="0" speed="6.59" length="10.81" shape="0.05,-146.37 2.52,-147.05 3.95,-148.66 4.35,-151.20 3.71,-154.67"/>
    </edge>
    <edge id=":J24_1" function="internal">
        <lane id=":J24_1_0" index="0" speed="8.83" length="13.11" shape="0.05,-146.37 3.16,-147.08 5.68,-148.71 7.60,-151.26 8.94,-154.74"/>
    </edge>
    <edge id=":J24_2" function="internal">
        <lane id=":J24_2_0" index="0" speed="13.89" length="12.97" shape="0.05,-146.37 13.00,-147.07"/>
    </edge>
    <edge id=":J24_3" function="internal">
        <lane id=":J24_3_0" index="0" speed="6.10" length="9.07" shape="5.43,-137.69 5.42,-140.25 4.56,-142.02 2.85,-143.00 0.29,-143.18"/>
    </edge>
    <edge id=":J24_4" function="internal">
        <lane id=":J24_4_0" index="0" speed="13.89" length="17.16" shape="5.43,-137.69 5.65,-141.76 5.36,-146.24 4.67,-150.69 3.71,-154.67"/>
    </edge>
    <edge id=":J24_5" function="internal">
        <lane id=":J24_5_0" index="0" speed="13.89" length="17.42" shape="5.43,-137.69 6.09,-141.76 6.97,-146.26 7.95,-150.73 8.94,-154.74"/>
    </edge>
    <edge id=":J24_6" function="internal">
        <lane id=":J24_6_0" index="0" speed="8.23" length="7.80" shape="5.43,-137.69 6.39,-141.74 7.97,-144.65 8.22,-144.85"/>
    </edge>
    <edge id=":J24_7" function="internal">
        <lane id=":J24_7_0" index="0" speed="8.23" length="5.41" shape="8.22,-144.85 10.18,-146.42 13.00,-147.07"/>
    </edge>
    <edge id=":J25_0" function="internal">
        <lane id=":J25_0_0" index="0" speed="6.86" length="8.16" shape="-17.95,-228.19 -18.86,-230.34 -20.12,-231.87 -21.74,-232.75 -23.72,-233.01"/>
    </edge>
    <edge id=":J25_1" function="internal">
        <lane id=":J25_1_0" index="0" speed="13.89" length="13.51" shape="-17.95,-228.19 -18.72,-231.62 -18.91,-234.85 -18.52,-238.06 -17.56,-241.45"/>
    </edge>
    <edge id=":J25_2" function="internal">
        <lane id=":J25_2_0" index="0" speed="6.61" length="11.17" shape="-17.95,-228.19 -18.60,-231.75 -18.14,-234.33 -16.59,-235.91 -13.94,-236.51"/>
    </edge>
    <edge id=":J25_3" function="internal">
        <lane id=":J25_3_0" index="0" speed="13.89" length="9.89" shape="-13.84,-233.31 -23.72,-233.01"/>
    </edge>
    <edge id=":J25_4" function="internal">
        <lane id=":J25_4_0" index="0" speed="6.42" length="2.77" shape="-13.84,-233.31 -16.57,-233.74"/>
    </edge>
    <edge id=":J25_7" function="internal">
        <lane id=":J25_7_0" index="0" speed="6.42" length="8.48" shape="-16.57,-233.74 -18.10,-235.24 -18.43,-237.81 -17.56,-241.45"/>
    </edge>
    <edge id=":J25_5" function="internal">
        <lane id=":J25_5_0" index="0" speed="7.44" length="8.72" shape="-23.82,-236.21 -21.76,-236.58 -20.03,-237.58 -18.63,-239.20 -17.56,-241.45"/>
    </edge>
    <edge id=":J25_6" function="internal">
        <lane id=":J25_6_0" index="0" speed="13.89" length="9.88" shape="-23.82,-236.21 -13.94,-236.51"/>
    </edge>
    <edge id=":J26_0" function="internal">
        <lane id=":J26_0_0" index="0" speed="13.89" length="11.72" shape="35.29,-234.68 23.58,-234.51"/>
    </edge>
    <edge id=":J26_1" function="internal">
        <lane id=":J26_1_0" index="0" speed="9.02" length="2.20" shape="35.29,-234.68 33.18,-235.30"/>
    </edge>
    <edge id=":J26_7" function="internal">
        <lane id=":J26_7_0" index="0" speed="9.02" length="10.37" shape="33.18,-235.30 31.17,-237.01 29.25,-239.83 27.43,-243.74"/>
    </edge>
    <edge id=":J26_2" function="internal">
        <lane id=":J26_2_0" index="0" speed="5.89" length="9.11" shape="23.48,-237.71 26.08,-238.16 27.60,-239.31 28.05,-241.18 27.43,-243.74"/>
    </edge>
    <edge id=":J26_3" function="internal">
        <lane id=":J26_3_0" index="0" speed="13.89" length="11.92" shape="23.48,-237.71 35.39,-237.88"/>
    </edge>
    <edge id=":J26_4" function="internal">
        <lane id=":J26_4_0" index="0" speed="6.03" length="9.28" shape="28.42,-228.77 28.71,-231.36 27.99,-233.18 26.28,-234.23 23.58,-234.51"/>
    </edge>
    <edge id=":J26_5" function="internal">
        <lane id=":J26_5_0" index="0" speed="13.89" length="15.23" shape="28.42,-228.77 29.06,-232.49 29.10,-236.33 28.54,-240.12 27.43,-243.74"/>
    </edge>
    <edge id=":J26_6" function="internal">
        <lane id=":J26_6_0" index="0" speed="8.17" length="12.27" shape="28.42,-228.77 29.77,-232.81 31.38,-235.67 33.26,-237.36 35.39,-237.88"/>
    </edge>
    <edge id=":J27_0" function="internal">
        <lane id=":J27_0_0" index="0" speed="6.88" length="8.06" shape="57.60,-229.08 56.80,-231.25 55.62,-232.81 54.07,-233.78 52.14,-234.14"/>
    </edge>
    <edge id=":J27_1" function="internal">
        <lane id=":J27_1_0" index="0" speed="13.89" length="13.42" shape="57.60,-229.08 56.98,-232.53 56.93,-235.73 57.45,-238.90 58.54,-242.23"/>
    </edge>
    <edge id=":J27_2" function="internal">
        <lane id=":J27_2_0" index="0" speed="6.73" length="11.20" shape="57.60,-229.08 57.13,-232.60 57.70,-235.15 59.33,-236.74 62.01,-237.37"/>
    </edge>
    <edge id=":J27_3" function="internal">
        <lane id=":J27_3_0" index="0" speed="13.89" length="10.02" shape="62.16,-234.17 52.14,-234.14"/>
    </edge>
    <edge id=":J27_4" function="internal">
        <lane id=":J27_4_0" index="0" speed="6.36" length="3.06" shape="62.16,-234.17 59.33,-234.56 59.18,-234.71"/>
    </edge>
    <edge id=":J27_7" function="internal">
        <lane id=":J27_7_0" index="0" speed="6.36" length="8.27" shape="59.18,-234.71 57.79,-236.03 57.53,-238.59 58.54,-242.23"/>
    </edge>
    <edge id=":J27_5" function="internal">
        <lane id=":J27_5_0" index="0" speed="7.29" length="8.55" shape="52.24,-237.34 54.25,-237.60 55.97,-238.50 57.40,-240.04 58.54,-242.23"/>
    </edge>
    <edge id=":J27_6" function="internal">
        <lane id=":J27_6_0" index="0" speed="13.89" length="9.77" shape="52.24,-237.34 62.01,-237.37"/>
    </edge>
    <edge id=":J28_0" function="internal">
        <lane id=":J28_0_0" index="0" speed="8.10" length="4.06" shape="-76.85,-297.67 -77.69,-300.92 -77.75,-301.61"/>
    </edge>
    <edge id=":J28_2" function="internal">
        <lane id=":J28_2_0" index="0" speed="8.10" length="5.95" shape="-77.75,-301.61 -77.90,-303.58 -77.48,-305.67 -76.43,-307.18"/>
    </edge>
    <edge id=":J28_1" function="internal">
        <lane id=":J28_1_0" index="0" speed="13.89" length="10.87" shape="-81.65,-297.84 -80.57,-300.78 -79.73,-303.00 -78.55,-304.97 -76.43,-307.18"/>
    </edge>
    <edge id=":J29_0" function="internal">
        <lane id=":J29_0_0" index="0" speed="13.89" length="10.20" shape="6.24,-297.02 5.12,-299.81 4.30,-301.73 3.38,-303.62 1.99,-306.28"/>
    </edge>
    <edge id=":J29_1" function="internal">
        <lane id=":J29_1_0" index="0" speed="6.50" length="2.55" shape="6.24,-297.02 5.46,-299.45"/>
    </edge>
    <edge id=":J29_4" function="internal">
        <lane id=":J29_4_0" index="0" speed="6.50" length="5.99" shape="5.46,-299.45 5.30,-299.92 5.05,-302.19 5.49,-303.83 6.62,-304.85"/>
    </edge>
    <edge id=":J29_2" function="internal">
        <lane id=":J29_2_0" index="0" speed="9.90" length="9.60" shape="2.01,-296.94 2.75,-299.61 2.99,-302.06 2.74,-304.28 1.99,-306.28"/>
    </edge>
    <edge id=":J29_3" function="internal">
        <lane id=":J29_3_0" index="0" speed="10.09" length="9.30" shape="2.01,-296.94 3.21,-300.01 4.37,-302.35 5.51,-303.96 6.62,-304.85"/>
    </edge>
    <edge id=":J3_0" function="internal">
        <lane id=":J3_0_0" index="0" speed="9.38" length="7.97" shape="101.48,-47.09 101.91,-48.33 102.01,-50.04 101.78,-52.24 101.21,-54.92"/>
    </edge>
    <edge id=":J3_1" function="internal">
        <lane id=":J3_1_0" index="0" speed="13.89" length="8.36" shape="101.48,-47.09 102.74,-49.23 103.53,-50.73 104.27,-52.26 105.32,-54.51"/>
    </edge>
    <edge id=":J30_0" function="internal">
        <lane id=":J30_0_0" index="0" speed="12.75" length="12.09" shape="84.44,-293.39 82.96,-296.34 81.31,-298.53 79.22,-300.29 76.36,-301.95"/>
    </edge>
    <edge id=":J30_1" function="internal">
        <lane id=":J30_1_0" index="0" speed="11.07" length="4.74" shape="84.44,-293.39 83.24,-296.65 82.97,-297.88"/>
    </edge>
    <edge id=":J30_4" function="internal">
        <lane id=":J30_4_0" index="0" speed="11.07" length="6.71" shape="82.97,-297.88 82.62,-299.58 82.59,-302.20 83.15,-304.49"/>
    </edge>
    <edge id=":J30_2" function="internal">
        <lane id=":J30_2_0" index="0" speed="7.06" length="10.01" shape="78.70,-293.28 79.47,-296.15 79.34,-298.55 78.30,-300.49 76.36,-301.95"/>
    </edge>
    <edge id=":J30_3" function="internal">
        <lane id=":J30_3_0" index="0" speed="13.89" length="12.06" shape="78.70,-293.28 83.15,-304.49"/>
    </edge>
    <edge id=":J31_0" function="internal">
        <lane id=":J31_0_0" index="0" speed="13.89" length="9.64" shape="154.43,-291.15 153.23,-293.75 152.30,-295.49 151.12,-297.05 149.17,-299.13"/>
    </edge>
    <edge id=":J31_1" function="internal">
        <lane id=":J31_1_0" index="0" speed="7.77" length="8.64" shape="149.60,-290.91 150.33,-293.57 150.50,-295.83 150.11,-297.69 149.17,-299.13"/>
    </edge>
    <edge id=":J32_0" function="internal">
        <lane id=":J32_0_0" index="0" speed="7.86" length="9.94" shape="-19.58,-346.96 -21.14,-350.26 -21.99,-352.92 -22.13,-354.93 -21.56,-356.30"/>
    </edge>
    <edge id=":J32_1" function="internal">
        <lane id=":J32_1_0" index="0" speed="6.08" length="6.29" shape="-16.80,-349.77 -19.82,-351.58 -21.62,-353.27 -21.72,-353.55"/>
    </edge>
    <edge id=":J32_3" function="internal">
        <lane id=":J32_3_0" index="0" speed="6.08" length="2.96" shape="-21.72,-353.55 -22.20,-354.84 -21.56,-356.30"/>
    </edge>
    <edge id=":J32_2" function="internal">
        <lane id=":J32_2_0" index="0" speed="13.89" length="6.29" shape="-26.13,-351.98 -24.72,-353.21 -23.75,-354.05 -22.82,-354.93 -21.56,-356.30"/>
    </edge>
    <edge id=":J33_0" function="internal">
        <lane id=":J33_0_0" index="0" speed="13.89" length="13.51" shape="105.29,-343.91 102.88,-346.47 100.76,-348.93 98.75,-351.46 96.62,-354.26"/>
    </edge>
    <edge id=":J33_1" function="internal">
        <lane id=":J33_1_0" index="0" speed="6.31" length="9.69" shape="94.08,-346.58 96.53,-348.16 97.77,-349.96 97.80,-352.00 96.62,-354.26"/>
    </edge>
    <edge id=":J33_2" function="internal">
        <lane id=":J33_2_0" index="0" speed="9.70" length="12.42" shape="98.37,-342.53 99.18,-345.56 99.16,-348.53 98.30,-351.43 96.62,-354.26"/>
    </edge>
    <edge id=":J34_0" function="internal">
        <lane id=":J34_0_0" index="0" speed="9.62" length="5.91" shape="43.89,-424.57 42.90,-426.00 42.42,-427.10 42.25,-428.32 42.21,-430.07"/>
    </edge>
    <edge id=":J34_1" function="internal">
        <lane id=":J34_1_0" index="0" speed="8.72" length="6.24" shape="39.45,-424.76 40.72,-426.11 41.59,-427.13 42.07,-428.29 42.21,-430.07"/>
    </edge>
    <edge id=":J4_0" function="internal">
        <lane id=":J4_0_0" index="0" speed="13.89" length="12.82" shape="-57.83,-135.28 -64.22,-146.39"/>
    </edge>
    <edge id=":J4_1" function="internal">
        <lane id=":J4_1_0" index="0" speed="13.89" length="12.50" shape="-57.83,-135.28 -59.39,-138.24 -60.22,-140.99 -60.50,-143.87 -60.42,-147.25"/>
    </edge>
    <edge id=":J4_2" function="internal">
        <lane id=":J4_2_0" index="0" speed="5.79" length="9.48" shape="-57.83,-135.28 -59.26,-138.19 -59.46,-140.33 -58.41,-141.70 -56.12,-142.30"/>
    </edge>
    <edge id=":J4_3" function="internal">
        <lane id=":J4_3_0" index="0" speed="8.76" length="1.61" shape="-55.89,-139.10 -57.48,-139.36"/>
    </edge>
    <edge id=":J4_4" function="internal">
        <lane id=":J4_4_0" index="0" speed="6.74" length="1.61" shape="-55.89,-139.10 -57.48,-139.38"/>
    </edge>
    <edge id=":J4_5" function="internal">
        <lane id=":J4_5_0" index="0" speed="8.76" length="10.00" shape="-57.48,-139.36 -57.98,-139.45 -60.07,-140.77 -62.15,-143.09 -64.22,-146.39"/>
    </edge>
    <edge id=":J4_6" function="internal">
        <lane id=":J4_6_0" index="0" speed="6.74" length="9.08" shape="-57.48,-139.38 -58.04,-139.48 -59.51,-140.96 -60.31,-143.55 -60.42,-147.25"/>
    </edge>
    <edge id=":J6_0" function="internal">
        <lane id=":J6_0_0" index="0" speed="7.02" length="12.04" shape="144.65,-154.44 147.89,-155.22 149.92,-156.87 150.74,-159.40 150.36,-162.81"/>
    </edge>
    <edge id=":J6_1" function="internal">
        <lane id=":J6_1_0" index="0" speed="9.73" length="14.61" shape="144.65,-154.44 148.54,-155.24 151.68,-156.86 154.07,-159.31 155.72,-162.60"/>
    </edge>
    <edge id=":J6_2" function="internal">
        <lane id=":J6_2_0" index="0" speed="5.66" length="9.25" shape="148.78,-145.72 149.64,-148.37 149.28,-150.17 147.72,-151.13 144.93,-151.25"/>
    </edge>
    <edge id=":J6_3" function="internal">
        <lane id=":J6_3_0" index="0" speed="13.89" length="17.41" shape="148.78,-145.72 150.11,-149.61 150.85,-154.14 150.94,-158.73 150.36,-162.81"/>
    </edge>
    <edge id=":J6_4" function="internal">
        <lane id=":J6_4_0" index="0" speed="13.89" length="18.26" shape="148.78,-145.72 150.55,-149.59 152.45,-154.08 154.25,-158.60 155.72,-162.60"/>
    </edge>
    <edge id=":J7_0" function="internal">
        <lane id=":J7_0_0" index="0" speed="7.76" length="10.92" shape="79.89,-139.64 78.83,-142.17 77.11,-143.96 74.72,-145.03 71.67,-145.35"/>
    </edge>
    <edge id=":J7_1" function="internal">
        <lane id=":J7_1_0" index="0" speed="13.89" length="17.16" shape="79.89,-139.64 75.73,-156.28"/>
    </edge>
    <edge id=":J7_2" function="internal">
        <lane id=":J7_2_0" index="0" speed="13.89" length="16.64" shape="79.89,-139.64 79.33,-143.58 79.41,-147.89 80.02,-152.18 81.05,-156.06"/>
    </edge>
    <edge id=":J7_3" function="internal">
        <lane id=":J7_3_0" index="0" speed="7.21" length="12.68" shape="79.89,-139.64 79.38,-143.55 80.04,-146.43 81.89,-148.29 84.93,-149.12"/>
    </edge>
    <edge id=":J7_4" function="internal">
        <lane id=":J7_4_0" index="0" speed="13.89" length="13.56" shape="85.22,-145.94 71.67,-145.35"/>
    </edge>
    <edge id=":J7_5" function="internal">
        <lane id=":J7_5_0" index="0" speed="8.80" length="3.15" shape="85.22,-145.94 82.09,-146.36"/>
    </edge>
    <edge id=":J7_6" function="internal">
        <lane id=":J7_6_0" index="0" speed="6.97" length="3.22" shape="85.22,-145.94 82.01,-146.31"/>
    </edge>
    <edge id=":J7_10" function="internal">
        <lane id=":J7_10_0" index="0" speed="8.80" length="12.17" shape="82.09,-146.36 79.47,-148.22 77.35,-151.53 75.73,-156.28"/>
    </edge>
    <edge id=":J7_11" function="internal">
        <lane id=":J7_11_0" index="0" speed="6.97" length="10.62" shape="82.01,-146.31 80.25,-148.12 79.93,-151.37 81.05,-156.06"/>
    </edge>
    <edge id=":J7_7" function="internal">
        <lane id=":J7_7_0" index="0" speed="6.52" length="10.58" shape="71.63,-148.46 74.14,-149.00 75.66,-150.49 76.19,-152.91 75.73,-156.28"/>
    </edge>
    <edge id=":J7_8" function="internal">
        <lane id=":J7_8_0" index="0" speed="8.88" length="12.97" shape="71.63,-148.46 74.80,-149.00 77.43,-150.44 79.52,-152.80 81.05,-156.06"/>
    </edge>
    <edge id=":J7_9" function="internal">
        <lane id=":J7_9_0" index="0" speed="13.89" length="13.32" shape="71.63,-148.46 84.93,-149.12"/>
    </edge>
    <edge id=":J8_0" function="internal">
        <lane id=":J8_0_0" index="0" speed="10.01" length="10.84" shape="-106.68,-224.51 -107.75,-227.06 -108.20,-229.66 -108.03,-232.29 -107.24,-234.97"/>
    </edge>
    <edge id=":J8_1" function="internal">
        <lane id=":J8_1_0" index="0" speed="5.82" length="9.29" shape="-106.68,-224.51 -107.90,-227.41 -107.98,-229.54 -106.91,-230.90 -104.71,-231.50"/>
    </edge>
    <edge id=":J8_2" function="internal">
        <lane id=":J8_2_0" index="0" speed="5.79" length="1.67" shape="-104.46,-228.31 -106.12,-228.49"/>
    </edge>
    <edge id=":J8_3" function="internal">
        <lane id=":J8_3_0" index="0" speed="5.79" length="7.71" shape="-106.12,-228.49 -106.76,-228.56 -107.99,-229.76 -108.15,-231.90 -107.24,-234.97"/>
    </edge>
    <edge id=":J9_0" function="internal">
        <lane id=":J9_0_0" index="0" speed="13.89" length="11.74" shape="-50.45,-232.22 -62.17,-231.51"/>
    </edge>
    <edge id=":J9_1" function="internal">
        <lane id=":J9_1_0" index="0" speed="8.45" length="2.39" shape="-50.45,-232.22 -52.79,-232.71"/>
    </edge>
    <edge id=":J9_7" function="internal">
        <lane id=":J9_7_0" index="0" speed="8.45" length="10.07" shape="-52.79,-232.71 -54.87,-234.32 -56.69,-237.04 -58.26,-240.89"/>
    </edge>
    <edge id=":J9_2" function="internal">
        <lane id=":J9_2_0" index="0" speed="6.05" length="9.07" shape="-62.41,-234.70 -59.89,-235.25 -58.36,-236.47 -57.82,-238.35 -58.26,-240.89"/>
    </edge>
    <edge id=":J9_3" function="internal">
        <lane id=":J9_3_0" index="0" speed="13.89" length="11.89" shape="-62.41,-234.70 -50.54,-235.42"/>
    </edge>
    <edge id=":J9_4" function="internal">
        <lane id=":J9_4_0" index="0" speed="6.35" length="9.39" shape="-56.23,-226.17 -56.49,-228.68 -57.56,-230.41 -59.46,-231.35 -62.17,-231.51"/>
    </edge>
    <edge id=":J9_5" function="internal">
        <lane id=":J9_5_0" index="0" speed="13.89" length="14.95" shape="-56.23,-226.17 -56.22,-229.90 -56.57,-233.62 -57.25,-237.29 -58.26,-240.89"/>
    </edge>
    <edge id=":J9_6" function="internal">
        <lane id=":J9_6_0" index="0" speed="7.62" length="11.96" shape="-56.23,-226.17 -55.70,-230.16 -54.57,-233.03 -52.85,-234.78 -50.54,-235.42"/>
    </edge>

    <edge id="-E44" from="J4" to="J24" priority="-1">
        <lane id="-E44_0" index="0" speed="13.89" length="56.32" shape="-56.12,-142.30 0.05,-146.37"/>
    </edge>
    <edge id="-E47" from="J6" to="J7" priority="-1">
        <lane id="-E47_0" index="0" speed="13.89" length="59.95" shape="144.93,-151.25 85.22,-145.94"/>
    </edge>
    <edge id="-E48" from="J26" to="J27" priority="-1">
        <lane id="-E48_0" index="0" speed="13.89" length="16.85" shape="35.39,-237.88 52.24,-237.34"/>
    </edge>
    <edge id="-E49" from="J25" to="J26" priority="-1">
        <lane id="-E49_0" index="0" speed="13.89" length="37.44" shape="-13.94,-236.51 23.48,-237.71"/>
    </edge>
    <edge id="-E50" from="J9" to="J25" priority="-1">
        <lane id="-E50_0" index="0" speed="13.89" length="26.74" shape="-50.54,-235.42 -23.82,-236.21"/>
    </edge>
    <edge id="-E51" from="J8" to="J9" priority="-1">
        <lane id="-E51_0" index="0" speed="13.89" length="42.42" shape="-104.71,-231.50 -62.41,-234.70"/>
    </edge>
    <edge id="-E52" from="J11" to="J27" priority="-1">
        <lane id="-E52_0" index="0" speed="13.89" length="39.84" shape="101.96,-235.96 62.16,-234.17"/>
    </edge>
    <edge id="-E54" from="J12" to="J13" priority="-1">
        <lane id="-E54_0" index="0" speed="13.89" length="36.44" shape="172.92,-234.06 136.53,-235.76"/>
    </edge>
    <edge id="E0" from="J0" to="J1" priority="-1">
        <lane id="E0_0" index="0" speed="13.89" length="36.14" shape="45.08,85.06 45.08,48.92"/>
    </edge>
    <edge id="E1" from="J1" to="J2" priority="-1">
        <lane id="E1_0" index="0" speed="13.89" length="106.32" shape="42.86,43.45 -5.55,-51.21"/>
    </edge>
    <edge id="E100" from="J34" to="J36" priority="-1">
        <lane id="E100_0" index="0" speed="13.89" length="38.73" shape="42.21,-430.07 41.72,-468.80"/>
    </edge>
    <edge id="E12" from="J7" to="J11" priority="-1">
        <lane id="E12_0" index="0" speed="13.89" length="78.34" shape="81.05,-156.06 106.25,-230.24"/>
    </edge>
    <edge id="E13" from="J6" to="J12" priority="-1">
        <lane id="E13_0" index="0" speed="13.89" length="69.06" shape="155.72,-162.60 178.09,-227.93"/>
    </edge>
    <edge id="E14" from="J6" to="J13" priority="-1">
        <lane id="E14_0" index="0" speed="13.89" length="70.52" shape="150.36,-162.81 132.73,-231.09"/>
    </edge>
    <edge id="E2" from="J1" to="J3" priority="-1">
        <lane id="E2_0" index="0" speed="13.89" length="105.74" shape="47.11,43.60 101.48,-47.09"/>
    </edge>
    <edge id="E26" from="J2" to="J24" priority="-1">
        <lane id="E26_0" index="0" speed="13.89" length="79.70" shape="-5.65,-58.76 5.43,-137.69"/>
    </edge>
    <edge id="E27" from="J24" to="J25" priority="-1">
        <lane id="E27_0" index="0" speed="13.89" length="76.64" shape="3.71,-154.67 -17.95,-228.19"/>
    </edge>
    <edge id="E28" from="J24" to="J26" priority="-1">
        <lane id="E28_0" index="0" speed="13.89" length="76.55" shape="8.94,-154.74 28.42,-228.77"/>
    </edge>
    <edge id="E29" from="J7" to="J27" priority="-1">
        <lane id="E29_0" index="0" speed="13.89" length="75.02" shape="75.73,-156.28 57.60,-229.08"/>
    </edge>
    <edge id="E3" from="J2" to="J4" priority="-1">
        <lane id="E3_0" index="0" speed="13.89" length="91.16" shape="-9.60,-57.93 -57.83,-135.28"/>
    </edge>
    <edge id="E30" from="J8" to="J28" priority="-1">
        <lane id="E30_0" index="0" speed="13.89" length="67.87" shape="-107.24,-234.97 -81.65,-297.84"/>
    </edge>
    <edge id="E31" from="J9" to="J28" priority="-1">
        <lane id="E31_0" index="0" speed="13.89" length="59.74" shape="-58.26,-240.89 -76.85,-297.67"/>
    </edge>
    <edge id="E32" from="J25" to="J29" priority="-1">
        <lane id="E32_0" index="0" speed="13.89" length="58.84" shape="-17.56,-241.45 2.01,-296.94"/>
    </edge>
    <edge id="E33" from="J26" to="J29" priority="-1">
        <lane id="E33_0" index="0" speed="13.89" length="57.34" shape="27.43,-243.74 6.24,-297.02"/>
    </edge>
    <edge id="E34" from="J27" to="J30" priority="-1">
        <lane id="E34_0" index="0" speed="13.89" length="54.88" shape="58.54,-242.23 78.70,-293.28"/>
    </edge>
    <edge id="E35" from="J11" to="J30" priority="-1">
        <lane id="E35_0" index="0" speed="13.89" length="52.59" shape="105.61,-245.24 84.44,-293.39"/>
    </edge>
    <edge id="E36" from="J13" to="J31" priority="-1">
        <lane id="E36_0" index="0" speed="13.89" length="49.72" shape="133.26,-243.96 149.60,-290.91"/>
    </edge>
    <edge id="E37" from="J12" to="J31" priority="-1">
        <lane id="E37_0" index="0" speed="13.89" length="53.16" shape="176.90,-242.97 154.43,-291.15"/>
    </edge>
    <edge id="E38" from="J28" to="J32" priority="-1">
        <lane id="E38_0" index="0" speed="13.89" length="67.36" shape="-76.43,-307.18 -26.13,-351.98"/>
    </edge>
    <edge id="E39" from="J29" to="J32" priority="-1">
        <lane id="E39_0" index="0" speed="13.89" length="46.04" shape="1.99,-306.28 -19.58,-346.96"/>
    </edge>
    <edge id="E40" from="J30" to="J33" priority="-1">
        <lane id="E40_0" index="0" speed="13.89" length="40.97" shape="83.15,-304.49 98.37,-342.53"/>
    </edge>
    <edge id="E41" from="J31" to="J33" priority="-1">
        <lane id="E41_0" index="0" speed="13.89" length="62.70" shape="149.17,-299.13 105.29,-343.91"/>
    </edge>
    <edge id="E42" from="J32" to="J34" priority="-1">
        <lane id="E42_0" index="0" speed="13.89" length="91.70" shape="-21.56,-356.30 39.45,-424.76"/>
    </edge>
    <edge id="E43" from="J33" to="J34" priority="-1">
        <lane id="E43_0" index="0" speed="13.89" length="87.89" shape="96.62,-354.26 43.89,-424.57"/>
    </edge>
    <edge id="E44" from="J24" to="J4" priority="-1">
        <lane id="E44_0" index="0" speed="13.89" length="56.32" shape="0.29,-143.18 -55.89,-139.10"/>
    </edge>
    <edge id="E45" from="J24" to="J7" priority="-1">
        <lane id="E45_0" index="0" speed="13.89" length="58.64" shape="13.00,-147.07 71.63,-148.46"/>
    </edge>
    <edge id="E46" from="J7" to="J35" priority="-1">
        <lane id="E46_0" index="0" speed="13.89" length="59.25" shape="71.67,-145.35 12.42,-144.62"/>
    </edge>
    <edge id="E47" from="J7" to="J6" priority="-1">
        <lane id="E47_0" index="0" speed="13.89" length="59.95" shape="84.93,-149.12 144.65,-154.44"/>
    </edge>
    <edge id="E48" from="J27" to="J26" priority="-1">
        <lane id="E48_0" index="0" speed="13.89" length="16.85" shape="52.14,-234.14 35.29,-234.68"/>
    </edge>
    <edge id="E49" from="J26" to="J25" priority="-1">
        <lane id="E49_0" index="0" speed="13.89" length="37.44" shape="23.58,-234.51 -13.84,-233.31"/>
    </edge>
    <edge id="E50" from="J25" to="J9" priority="-1">
        <lane id="E50_0" index="0" speed="13.89" length="26.74" shape="-23.72,-233.01 -50.45,-232.22"/>
    </edge>
    <edge id="E51" from="J9" to="J8" priority="-1">
        <lane id="E51_0" index="0" speed="13.89" length="42.42" shape="-62.17,-231.51 -104.46,-228.31"/>
    </edge>
    <edge id="E52" from="J27" to="J11" priority="-1">
        <lane id="E52_0" index="0" speed="13.89" length="39.84" shape="62.01,-237.37 101.81,-239.16"/>
    </edge>