<?xml version="1.0" ?>
<routes xmlns:xsi="http://www.w3.org/2001/XMLSchema-instance" xsi:noNamespaceSchemaLocation="http://sumo.dlr.de/xsd/routes_file.xsd">
    <trip id="0" depart="0.0" from="E0" to="E100"/>
    <trip id="1" depart="0.1" from="E0" to="E100"/>
    <trip id="2" depart="0.2" from="E0" to="E100"/>
    <trip id="3" depart="0.30000000000000004" from="E0" to="E100"/>
    <trip id="4" depart="0.4" from="E0" to="E100"/>
    <trip id="5" depart="0.5" from="E0" to="E100"/>
    <trip id="6" depart="0.6" from="E0" to="E100"/>
    <trip id="7" depart="0.7" from="E0" to="E100"/>
    <trip id="8" depart="0.7999999999999999" from="E0" to="E100"/>
    <trip id="9" depart="0.8999999999999999" from="E0" to="E100"/>
    <trip id="10" depart="0.9999999999999999" from="E0" to="E100"/>
    <trip id="11" depart="1.0999999999999999" from="E0" to="E100"/>
    <trip id="12" depart="1.2" from="E0" to="E100"/>
    <trip id="13" depart="1.3" from="E0" to="E100"/>
    <trip id="14" depart="1.4000000000000001" from="E0" to="E100"/>
    <trip id="15" depart="1.5000000000000002" from="E0" to="E100"/>
    <trip id="16" depart="1.6000000000000003" from="E0" to="E100"/>
    <trip id="17" depart="1.7000000000000004" from="E0" to="E100"/>
    <trip id="18" depart="1.8000000000000005" from="E0" to="E100"/>
    <trip id="19" depart="1.9000000000000006" from="E0" to="E100"/>
    <trip id="20" depart="2.0000000000000004" from="E0" to="E100"/>
    <trip id="21" depart="2.1000000000000005" from="E0" to="E100"/>
    <trip id="22" depart="2.2000000000000006" from="E0" to="E100"/>
    <trip id="23" depart="2.3000000000000007" from="E0" to="E100"/>
    <trip id="24" depart="2.400000000000001" from="E0" to="E100"/>
    <trip id="25" depart="2.500000000000001" from="E0" to="E100"/>
    <trip id="26" depart="2.600000000000001" from="E0" to="E100"/>
    <trip id="27" depart="2.700000000000001" from="E0" to="E100"/>
    <trip id="28" depart="2.800000000000001" from="E0" to="E100"/>
    <trip id="29" depart="2.9000000000000012" from="E0" to="E100"/>
    <trip id="30" depart="3.0000000000000013" from="E0" to="E100"/>
    <trip id="31" depart="3.1000000000000014" from="E0" to="E100"/>
    <trip id="32" depart="3.2000000000000015" from="E0" to="E100"/>
    <trip id="33" depart="3.3000000000000016" from="E0" to="E100"/>
    <trip id="34" depart="3.4000000000000017" from="E0" to="E100"/>
    <trip id="35" depart="3.5000000000000018" from="E0" to="E100"/>
    <trip id="36" depart="3.600000000000002" from="E0" to="E100"/>
    <trip id="37" depart="3.700000000000002" from="E0" to="E100"/>
    <trip id="38" depart="3.800000000000002" from="E0" to="E100"/>
    <trip id="39" depart="3.900000000000002" from="E0" to="E100"/>
    <trip id="40" depart="4.000000000000002" from="E0" to="E100"/>
    <trip id="41" depart="4.100000000000001" from="E0" to="E100"/>
    <trip id="42" depart="4.200000000000001" from="E0" to="E100"/>
    <trip id="43" depart="4.300000000000001" from="E0" to="E100"/>
    <trip id="44" depart="4.4" from="E0" to="E100"/>
    <trip id="45" depart="4.5" from="E0" to="E100"/>
    <trip id="46" depart="4.6" from="E0" to="E100"/>
    <trip id="47" depart="4.699999999999999" from="E0" to="E100"/>
    <trip id="48" depart="4.799999999999999" from="E0" to="E100"/>
    <trip id="49" depart="4.899999999999999" from="E0" to="E100"/>
    <trip id="50" depart="4.999999999999998" from="E0" to="E100"/>
    <trip id="51" depart="5.099999999999998" from="E0" to="E100"/>
    <trip id="52" depart="5.1999999999999975" from="E0" to="E100"/>
    <trip id="53" depart="5.299999999999997" from="E0" to="E100"/>
    <trip id="54" depart="5.399999999999997" from="E0" to="E100"/>
    <trip id="55" depart="5.4999999999999964" from="E0" to="E100"/>
    <trip id="56" depart="5.599999999999996" from="E0" to="E100"/>
    <trip id="57" depart="5.699999999999996" from="E0" to="E100"/>
    <trip id="58" depart="5.799999999999995" from="E0" to="E100"/>
    <trip id="59" depart="5.899999999999995" from="E0" to="E100"/>
    <trip id="60" depart="5.999999999999995" from="E0" to="E100"/>
    <trip id="61" depart="6.099999999999994" from="E0" to="E100"/>
    <trip id="62" depart="6.199999999999994" from="E0" to="E100"/>
    <trip id="63" depart="6.299999999999994" from="E0" to="E100"/>
    <trip id="64" depart="6.399999999999993" from="E0" to="E100"/>
    <trip id="65" depart="6.499999999999993" from="E0" to="E100"/>
    <trip id="66" depart="6.5999999999999925" from="E0" to="E100"/>
    <trip id="67" depart="6.699999999999992" from="E0" to="E100"/>
    <trip id="68" depart="6.799999999999992" from="E0" to="E100"/>
    <trip id="69" depart="6.8999999999999915" from="E0" to="E100"/>
    <trip id="70" depart="6.999999999999991" from="E0" to="E100"/>
    <trip id="71" depart="7.099999999999991" from="E0" to="E100"/>
    <trip id="72" depart="7.19999999999999" from="E0" to="E100"/>
    <trip id="73" depart="7.29999999999999" from="E0" to="E100"/>
    <trip id="74" depart="7.39999999999999" from="E0" to="E100"/>
    <trip id="75" depart="7.499999999999989" from="E0" to="E100"/>
    <trip id="76" depart="7.599999999999989" from="E0" to="E100"/>
    <trip id="77" depart="7.699999999999989" from="E0" to="E100"/>
    <trip id="78" depart="7.799999999999988" from="E0" to="E100"/>
    <trip id="79" depart="7.899999999999988" from="E0" to="E100"/>
    <trip id="80" depart="7.999999999999988" from="E0" to="E100"/>
    <trip id="81" depart="8.099999999999987" from="E0" to="E100"/>
    <trip id="82" depart="8.199999999999987" from="E0" to="E100"/>
    <trip id="83" depart="8.299999999999986" from="E0" to="E100"/>
    <trip id="84" depart="8.399999999999986" from="E0" to="E100"/>
    <trip id="85" depart="8.499999999999986" from="E0" to="E100"/>
    <trip id="86" depart="8.599999999999985" from="E0" to="E100"/>
    <trip id="87" depart="8.699999999999985" from="E0" to="E100"/>
    <trip id="88" depart="8.799999999999985" from="E0" to="E100"/>
    <trip id="89" depart="8.899999999999984" from="E0" to="E100"/>
    <trip id="90" depart="8.999999999999984" from="E0" to="E100"/>
    <trip id="91" depart="9.099999999999984" from="E0" to="E100"/>
    <trip id="92" depart="9.199999999999983" from="E0" to="E100"/>
    <trip id="93" depart="9.299999999999983" from="E0" to="E100"/>
    <trip id="94" depart="9.399999999999983" from="E0" to="E100"/>
    <trip id="95" depart="9.499999999999982" from="E0" to="E100"/>
    <trip id="96" depart="9.599999999999982" from="E0" to="E100"/>
    <trip id="97" depart="9.699999999999982" from="E0" to="E100"/>
    <trip id="98" depart="9.799999999999981" from="E0" to="E100"/>
    <trip id="99" depart="9.89999999999998" from="E0" to="E100"/>
    <trip id="100" depart="9.99999999999998" from="E0" to="E100"/>
    <trip id="101" depart="10.09999999999998" from="E0" to="E100"/>
    <trip id="102" depart="10.19999999999998" from="E0" to="E100"/>
    <trip id="103" depart="10.29999999999998" from="E0" to="E100"/>
    <trip id="104" depart="10.399999999999979" from="E0" to="E100"/>
    <trip id="105" depart="10.499999999999979" from="E0" to="E100"/>
    <trip id="106" depart="10.599999999999978" from="E0" to="E100"/>
    <trip id="107" depart="10.699999999999978" from="E0" to="E100"/>
    <trip id="108" depart="10.799999999999978" from="E0" to="E100"/>
    <trip id="109" depart="10.899999999999977" from="E0" to="E100"/>
    <trip id="110" depart="10.999999999999977" from="E0" to="E100"/>
    <trip id="111" depart="11.099999999999977" from="E0" to="E100"/>
    <trip id="112" depart="11.199999999999976" from="E0" to="E100"/>
    <trip id="113" depart="11.299999999999976" from="E0" to="E100"/>
    <trip id="114" depart="11.399999999999975" from="E0" to="E100"/>
    <trip id="115" depart="11.499999999999975" from="E0" to="E100"/>
    <trip id="116" depart="11.599999999999975" from="E0" to="E100"/>
    <trip id="117" depart="11.699999999999974" from="E0" to="E100"/>
    <trip id="118" depart="11.799999999999974" from="E0" to="E100"/>
    <trip id="119" depart="11.899999999999974" from="E0" to="E100"/>
    <trip id="120" depart="11.999999999999973" from="E0" to="E100"/>
    <trip id="121" depart="12.099999999999973" from="E0" to="E100"/>
    <trip id="122" depart="12.199999999999973" from="E0" to="E100"/>
    <trip id="123" depart="12.299999999999972" from="E0" to="E100"/>
    <trip id="124" depart="12.399999999999972" from="E0" to="E100"/>
    <trip id="125" depart="12.499999999999972" from="E0" to="E100"/>
    <trip id="126" depart="12.599999999999971" from="E0" to="E100"/>
    <trip id="127" depart="12.69999999999997" from="E0" to="E100"/>
    <trip id="128" depart="12.79999999999997" from="E0" to="E100"/>
    <trip id="129" depart="12.89999999999997" from="E0" to="E100"/>
    <trip id="130" depart="12.99999999999997" from="E0" to="E100"/>
    <trip id="131" depart="13.09999999999997" from="E0" to="E100"/>
    <trip id="132" depart="13.199999999999969" from="E0" to="E100"/>
    <trip id="133" depart="13.299999999999969" from="E0" to="E100"/>
    <trip id="134" depart="13.399999999999968" from="E0" to="E100"/>
    <trip id="135" depart="13.499999999999968" from="E0" to="E100"/>
    <trip id="136" depart="13.599999999999968" from="E0" to="E100"/>
    <trip id="137" depart="13.699999999999967" from="E0" to="E100"/>
    <trip id="138" depart="13.799999999999967" from="E0" to="E100"/>
    <trip id="139" depart="13.899999999999967" from="E0" to="E100"/>
    <trip id="140" depart="13.999999999999966" from="E0" to="E100"/>
    <trip id="141" depart="14.099999999999966" from="E0" to="E100"/>
    <trip id="142" depart="14.199999999999966" from="E0" to="E100"/>
    <trip id="143" depart="14.299999999999965" from="E0" to="E100"/>
    <trip id="144" depart="14.399999999999965" from="E0" to="E100"/>
    <trip id="145" depart="14.499999999999964" from="E0" to="E100"/>
    <trip id="146" depart="14.599999999999964" from="E0" to="E100"/>
    <trip id="147" depart="14.699999999999964" from="E0" to="E100"/>
    <trip id="148" depart="14.799999999999963" from="E0" to="E100"/>
    <trip id="149" depart="14.899999999999963" from="E0" to="E100"/>
    <trip id="150" depart="14.999999999999963" from="E0" to="E100"/>
    <trip id="151" depart="15.099999999999962" from="E0" to="E100"/>
    <trip id="152" depart="15.199999999999962" from="E0" to="E100"/>
    <trip id="153" depart="15.299999999999962" from="E0" to="E100"/>
    <trip id="154" depart="15.399999999999961" from="E0" to="E100"/>
    <trip id="155" depart="15.499999999999961" from="E0" to="E100"/>
    <trip id="156" depart="15.59999999999996" from="E0" to="E100"/>
    <trip id="157" depart="15.69999999999996" from="E0" to="E100"/>
    <trip id="158" depart="15.79999999999996" from="E0" to="E100"/>
    <trip id="159" depart="15.89999999999996" from="E0" to="E100"/>
    <trip id="160" depart="15.99999999999996" from="E0" to="E100"/>
    <trip id="161" depart="16.09999999999996" from="E0" to="E100"/>
    <trip id="162" depart="16.19999999999996" from="E0" to="E100"/>
    <trip id="163" depart="16.29999999999996" from="E0" to="E100"/>
    <trip id="164" depart="16.399999999999963" from="E0" to="E100"/>
    <trip id="165" depart="16.499999999999964" from="E0" to="E100"/>
    <trip id="166" depart="16.599999999999966" from="E0" to="E100"/>
    <trip id="167" depart="16.699999999999967" from="E0" to="E100"/>
    <trip id="168" depart="16.79999999999997" from="E0" to="E100"/>
    <trip id="169" depart="16.89999999999997" from="E0" to="E100"/>
    <trip id="170" depart="16.99999999999997" from="E0" to="E100"/>
    <trip id="171" depart="17.099999999999973" from="E0" to="E100"/>
    <trip id="172" depart="17.199999999999974" from="E0" to="E100"/>
    <trip id="173" depart="17.299999999999976" from="E0" to="E100"/>
    <trip id="174" depart="17.399999999999977" from="E0" to="E100"/>
    <trip id="175" depart="17.49999999999998" from="E0" to="E100"/>
    <trip id="176" depart="17.59999999999998" from="E0" to="E100"/>
    <trip id="177" depart="17.69999999999998" from="E0" to="E100"/>
    <trip id="178" depart="17.799999999999983" from="E0" to="E100"/>
    <trip id="179" depart="17.899999999999984" from="E0" to="E100"/>
    <trip id="180" depart="17.999999999999986" from="E0" to="E100"/>
    <trip id="181" depart="18.099999999999987" from="E0" to="E100"/>
    <trip id="182" depart="18.19999999999999" from="E0" to="E100"/>
    <trip id="183" depart="18.29999999999999" from="E0" to="E100"/>
    <trip id="184" depart="18.39999999999999" from="E0" to="E100"/>
    <trip id="185" depart="18.499999999999993" from="E0" to="E100"/>
    <trip id="186" depart="18.599999999999994" from="E0" to="E100"/>
    <trip id="187" depart="18.699999999999996" from="E0" to="E100"/>
    <trip id="188" depart="18.799999999999997" from="E0" to="E100"/>
    <trip id="189" depart="18.9" from="E0" to="E100"/>
    <trip id="190" depart="19.0" from="E0" to="E100"/>
    <trip id="191" depart="19.1" from="E0" to="E100"/>
    <trip id="192" depart="19.200000000000003" from="E0" to="E100"/>
    <trip id="193" depart="19.300000000000004" from="E0" to="E100"/>
    <trip id="194" depart="19.400000000000006" from="E0" to="E100"/>
    <trip id="195" depart="19.500000000000007" from="E0" to="E100"/>
    <trip id="196" depart="19.60000000000001" from="E0" to="E100"/>
    <trip id="197" depart="19.70000000000001" from="E0" to="E100"/>
    <trip id="198" depart="19.80000000000001" from="E0" to="E100"/>
    <trip id="199" depart="19.900000000000013" from="E0" to="E100"/>
    <trip id="200" depart="20.000000000000014" from="E0" to="E100"/>
    <trip id="201" depart="20.100000000000016" from="E0" to="E100"/>
    <trip id="202" depart="20.200000000000017" from="E0" to="E100"/>
    <trip id="203" depart="20.30000000000002" from="E0" to="E100"/>
    <trip id="204" depart="20.40000000000002" from="E0" to="E100"/>
    <trip id="205" depart="20.50000000000002" from="E0" to="E100"/>
    <trip id="206" depart="20.600000000000023" from="E0" to="E100"/>
    <trip id="207" depart="20.700000000000024" from="E0" to="E100"/>
    <trip id="208" depart="20.800000000000026" from="E0" to="E100"/>
    <trip id="209" depart="20.900000000000027" from="E0" to="E100"/>
    <trip id="210" depart="21.00000000000003" from="E0" to="E100"/>
    <trip id="211" depart="21.10000000000003" from="E0" to="E100"/>
    <trip id="212" depart="21.20000000000003" from="E0" to="E100"/>
    <trip id="213" depart="21.300000000000033" from="E0" to="E100"/>
    <trip id="214" depart="21.400000000000034" from="E0" to="E100"/>
    <trip id="215" depart="21.500000000000036" from="E0" to="E100"/>
    <trip id="216" depart="21.600000000000037" from="E0" to="E100"/>
    <trip id="217" depart="21.70000000000004" from="E0" to="E100"/>
    <trip id="218" depart="21.80000000000004" from="E0" to="E100"/>
    <trip id="219" depart="21.90000000000004" from="E0" to="E100"/>
    <trip id="220" depart="22.000000000000043" from="E0" to="E100"/>
    <trip id="221" depart="22.100000000000044" from="E0" to="E100"/>
    <trip id="222" depart="22.200000000000045" from="E0" to="E100"/>
    <trip id="223" depart="22.300000000000047" from="E0" to="E100"/>
    <trip id="224" depart="22.40000000000005" from="E0" to="E100"/>
    <trip id="225" depart="22.50000000000005" from="E0" to="E100"/>
    <trip id="226" depart="22.60000000000005" from="E0" to="E100"/>
    <trip id="227" depart="22.700000000000053" from="E0" to="E100"/>
    <trip id="228" depart="22.800000000000054" from="E0" to="E100"/>
    <trip id="229" depart="22.900000000000055" from="E0" to="E100"/>
    <trip id="230" depart="23.000000000000057" from="E0" to="E100"/>
    <trip id="231" depart="23.10000000000006" from="E0" to="E100"/>
    <trip id="232" depart="23.20000000000006" from="E0" to="E100"/>
    <trip id="233" depart="23.30000000000006" from="E0" to="E100"/>
    <trip id="234" depart="23.400000000000063" from="E0" to="E100"/>
    <trip id="235" depart="23.500000000000064" from="E0" to="E100"/>
    <trip id="236" depart="23.600000000000065" from="E0" to="E100"/>
    <trip id="237" depart="23.700000000000067" from="E0" to="E100"/>
    <trip id="238" depart="23.800000000000068" from="E0" to="E100"/>
    <trip id="239" depart="23.90000000000007" from="E0" to="E100"/>
    <trip id="240" depart="24.00000000000007" from="E0" to="E100"/>
    <trip id="241" depart="24.100000000000072" from="E0" to="E100"/>
    <trip id="242" depart="24.200000000000074" from="E0" to="E100"/>
    <trip id="243" depart="24.300000000000075" from="E0" to="E100"/>
    <trip id="244" depart="24.400000000000077" from="E0" to="E100"/>
    <trip id="245" depart="24.500000000000078" from="E0" to="E100"/>
    <trip id="246" depart="24.60000000000008" from="E0" to="E100"/>
    <trip id="247" depart="24.70000000000008" from="E0" to="E100"/>
    <trip id="248" depart="24.800000000000082" from="E0" to="E100"/>
    <trip id="249" depart="24.900000000000084" from="E0" to="E100"/>
    <trip id="250" depart="25.000000000000085" from="E0" to="E100"/>
    <trip id="251" depart="25.100000000000087" from="E0" to="E100"/>
    <trip id="252" depart="25.200000000000088" from="E0" to="E100"/>
    <trip id="253" depart="25.30000000000009" from="E0" to="E100"/>
    <trip id="254" depart="25.40000000000009" from="E0" to="E100"/>
    <trip id="255" depart="25.500000000000092" from="E0" to="E100"/>
    <trip id="256" depart="25.600000000000094" from="E0" to="E100"/>
    <trip id="257" depart="25.700000000000095" from="E0" to="E100"/>
    <trip id="258" depart="25.800000000000097" from="E0" to="E100"/>
    <trip id="259" depart="25.900000000000098" from="E0" to="E100"/>
    <trip id="260" depart="26.0000000000001" from="E0" to="E100"/>
    <trip id="261" depart="26.1000000000001" from="E0" to="E100"/>
    <trip id="262" depart="26.200000000000102" from="E0" to="E100"/>
    <trip id="263" depart="26.300000000000104" from="E0" to="E100"/>
    <trip id="264" depart="26.400000000000105" from="E0" to="E100"/>
    <trip id="265" depart="26.500000000000107" from="E0" to="E100"/>
    <trip id="266" depart="26.600000000000108" from="E0" to="E100"/>
    <trip id="267" depart="26.70000000000011" from="E0" to="E100"/>
    <trip id="268" depart="26.80000000000011" from="E0" to="E100"/>
    <trip id="269" depart="26.900000000000112" from="E0" to="E100"/>
    <trip id="270" depart="27.000000000000114" from="E0" to="E100"/>
    <trip id="271" depart="27.100000000000115" from="E0" to="E100"/>
    <trip id="272" depart="27.200000000000117" from="E0" to="E100"/>
    <trip id="273" depart="27.300000000000118" from="E0" to="E100"/>
    <trip id="274" depart="27.40000000000012" from="E0" to="E100"/>
    <trip id="275" depart="27.50000000000012" from="E0" to="E100"/>
    <trip id="276" depart="27.600000000000122" from="E0" to="E100"/>
    <trip id="277" depart="27.700000000000124" from="E0" to="E100"/>
    <trip id="278" depart="27.800000000000125" from="E0" to="E100"/>
    <trip id="279" depart="27.900000000000126" from="E0" to="E100"/>
    <trip id="280" depart="28.000000000000128" from="E0" to="E100"/>
    <trip id="281" depart="28.10000000000013" from="E0" to="E100"/>
    <trip id="282" depart="28.20000000000013" from="E0" to="E100"/>
    <trip id="283" depart="28.300000000000132" from="E0" to="E100"/>
    <trip id="284" depart="28.400000000000134" from="E0" to="E100"/>
    <trip id="285" depart="28.500000000000135" from="E0" to="E100"/>
    <trip id="286" depart="28.600000000000136" from="E0" to="E100"/>
    <trip id="287" depart="28.700000000000138" from="E0" to="E100"/>
    <trip id="288" depart="28.80000000000014" from="E0" to="E100"/>
    <trip id="289" depart="28.90000000000014" from="E0" to="E100"/>
    <trip id="290" depart="29.000000000000142" from="E0" to="E100"/>
    <trip id="291" depart="29.100000000000144" from="E0" to="E100"/>
    <trip id="292" depart="29.200000000000145" from="E0" to="E100"/>
    <trip id="293" depart="29.300000000000146" from="E0" to="E100"/>
    <trip id="294" depart="29.400000000000148" from="E0" to="E100"/>
    <trip id="295" depart="29.50000000000015" from="E0" to="E100"/>
    <trip id="296" depart="29.60000000000015" from="E0" to="E100"/>
    <trip id="297" depart="29.700000000000152" from="E0" to="E100"/>
    <trip id="298" depart="29.800000000000153" from="E0" to="E100"/>
    <trip id="299" depart="29.900000000000155" from="E0" to="E100"/>
    <trip id="300" depart="30.000000000000156" from="E0" to="E100"/>
    <trip id="301" depart="30.100000000000158" from="E0" to="E100"/>
    <trip id="302" depart="30.20000000000016" from="E0" to="E100"/>
    <trip id="303" depart="30.30000000000016" from="E0" to="E100"/>
    <trip id="304" depart="30.400000000000162" from="E0" to="E100"/>
    <trip id="305" depart="30.500000000000163" from="E0" to="E100"/>
    <trip id="306" depart="30.600000000000165" from="E0" to="E100"/>
    <trip id="307" depart="30.700000000000166" from="E0" to="E100"/>
    <trip id="308" depart="30.800000000000168" from="E0" to="E100"/>
    <trip id="309" depart="30.90000000000017" from="E0" to="E100"/>
    <trip id="310" depart="31.00000000000017" from="E0" to="E100"/>
    <trip id="311" depart="31.100000000000172" from="E0" to="E100"/>
    <trip id="312" depart="31.200000000000173" from="E0" to="E100"/>
    <trip id="313" depart="31.300000000000175" from="E0" to="E100"/>
    <trip id="314" depart="31.400000000000176" from="E0" to="E100"/>
    <trip id="315" depart="31.500000000000178" from="E0" to="E100"/>
    <trip id="316" depart="31.60000000000018" from="E0" to="E100"/>
    <trip id="317" depart="31.70000000000018" from="E0" to="E100"/>
    <trip id="318" depart="31.800000000000182" from="E0" to="E100"/>
    <trip id="319" depart="31.900000000000183" from="E0" to="E100"/>
    <trip id="320" depart="32.000000000000185" from="E0" to="E100"/>
    <trip id="321" depart="32.100000000000186" from="E0" to="E100"/>
    <trip id="322" depart="32.20000000000019" from="E0" to="E100"/>
    <trip id="323" depart="32.30000000000019" from="E0" to="E100"/>
    <trip id="324" depart="32.40000000000019" from="E0" to="E100"/>
    <trip id="325" depart="32.50000000000019" from="E0" to="E100"/>
    <trip id="326" depart="32.60000000000019" from="E0" to="E100"/>
    <trip id="327" depart="32.700000000000195" from="E0" to="E100"/>
    <trip id="328" depart="32.800000000000196" from="E0" to="E100"/>
    <trip id="329" depart="32.9000000000002" from="E0" to="E100"/>
    <trip id="330" depart="33.0000000000002" from="E0" to="E100"/>
    <trip id="331" depart="33.1000000000002" from="E0" to="E100"/>
    <trip id="332" depart="33.2000000000002" from="E0" to="E100"/>
    <trip id="333" depart="33.3000000000002" from="E0" to="E100"/>
    <trip id="334" depart="33.400000000000205" from="E0" to="E100"/>
    <trip id="335" depart="33.500000000000206" from="E0" to="E100"/>
    <trip id="336" depart="33.60000000000021" from="E0" to="E100"/>
    <trip id="337" depart="33.70000000000021" from="E0" to="E100"/>
    <trip id="338" depart="33.80000000000021" from="E0" to="E100"/>
    <trip id="339" depart="33.90000000000021" from="E0" to="E100"/>
    <trip id="340" depart="34.00000000000021" from="E0" to="E100"/>
    <trip id="341" depart="34.100000000000215" from="E0" to="E100"/>
    <trip id="342" depart="34.200000000000216" from="E0" to="E100"/>
    <trip id="343" depart="34.30000000000022" from="E0" to="E100"/>
    <trip id="344" depart="34.40000000000022" from="E0" to="E100"/>
    <trip id="345" depart="34.50000000000022" from="E0" to="E100"/>
    <trip id="346" depart="34.60000000000022" from="E0" to="E100"/>
    <trip id="347" depart="34.70000000000022" from="E0" to="E100"/>
    <trip id="348" depart="34.800000000000225" from="E0" to="E100"/>
    <trip id="349" depart="34.900000000000226" from="E0" to="E100"/>
    <trip id="350" depart="35.00000000000023" from="E0" to="E100"/>
    <trip id="351" depart="35.10000000000023" from="E0" to="E100"/>
    <trip id="352" depart="35.20000000000023" from="E0" to="E100"/>
    <trip id="353" depart="35.30000000000023" from="E0" to="E100"/>
    <trip id="354" depart="35.40000000000023" from="E0" to="E100"/>
    <trip id="355" depart="35.500000000000234" from="E0" to="E100"/>
    <trip id="356" depart="35.600000000000236" from="E0" to="E100"/>
    <trip id="357" depart="35.70000000000024" from="E0" to="E100"/>
    <trip id="358" depart="35.80000000000024" from="E0" to="E100"/>
    <trip id="359" depart="35.90000000000024" from="E0" to="E100"/>
    <trip id="360" depart="36.00000000000024" from="E0" to="E100"/>
    <trip id="361" depart="36.10000000000024" from="E0" to="E100"/>
    <trip id="362" depart="36.200000000000244" from="E0" to="E100"/>
    <trip id="363" depart="36.300000000000246" from="E0" to="E100"/>
    <trip id="364" depart="36.40000000000025" from="E0" to="E100"/>
    <trip id="365" depart="36.50000000000025" from="E0" to="E100"/>
    <trip id="366" depart="36.60000000000025" from="E0" to="E100"/>
    <trip id="367" depart="36.70000000000025" from="E0" to="E100"/>
    <trip id="368" depart="36.80000000000025" from="E0" to="E100"/>
    <trip id="369" depart="36.900000000000254" from="E0" to="E100"/>
    <trip id="370" depart="37.000000000000256" from="E0" to="E100"/>
    <trip id="371" depart="37.10000000000026" from="E0" to="E100"/>
    <trip id="372" depart="37.20000000000026" from="E0" to="E100"/>
    <trip id="373" depart="37.30000000000026" from="E0" to="E100"/>
    <trip id="374" depart="37.40000000000026" from="E0" to="E100"/>
    <trip id="375" depart="37.50000000000026" from="E0" to="E100"/>
    <trip id="376" depart="37.600000000000264" from="E0" to="E100"/>
    <trip id="377" depart="37.700000000000266" from="E0" to="E100"/>
    <trip id="378" depart="37.80000000000027" from="E0" to="E100"/>
    <trip id="379" depart="37.90000000000027" from="E0" to="E100"/>
    <trip id="380" depart="38.00000000000027" from="E0" to="E100"/>
    <trip id="381" depart="38.10000000000027" from="E0" to="E100"/>
    <trip id="382" depart="38.20000000000027" from="E0" to="E100"/>
    <trip id="383" depart="38.300000000000274" from="E0" to="E100"/>
    <trip id="384" depart="38.400000000000276" from="E0" to="E100"/>
    <trip id="385" depart="38.50000000000028" from="E0" to="E100"/>
    <trip id="386" depart="38.60000000000028" from="E0" to="E100"/>
    <trip id="387" depart="38.70000000000028" from="E0" to="E100"/>
    <trip id="388" depart="38.80000000000028" from="E0" to="E100"/>
    <trip id="389" depart="38.90000000000028" from="E0" to="E100"/>
    <trip id="390" depart="39.000000000000284" from="E0" to="E100"/>
    <trip id="391" depart="39.100000000000286" from="E0" to="E100"/>
    <trip id="392" depart="39.20000000000029" from="E0" to="E100"/>
    <trip id="393" depart="39.30000000000029" from="E0" to="E100"/>
    <trip id="394" depart="39.40000000000029" from="E0" to="E100"/>
    <trip id="395" depart="39.50000000000029" from="E0" to="E100"/>
    <trip id="396" depart="39.60000000000029" from="E0" to="E100"/>
    <trip id="397" depart="39.700000000000294" from="E0" to="E100"/>
    <trip id="398" depart="39.800000000000296" from="E0" to="E100"/>
    <trip id="399" depart="39.9000000000003" from="E0" to="E100"/>
    <trip id="400" depart="40.0000000000003" from="E0" to="E100"/>
    <trip id="401" depart="40.1000000000003" from="E0" to="E100"/>
    <trip id="402" depart="40.2000000000003" from="E0" to="E100"/>
    <trip id="403" depart="40.3000000000003" from="E0" to="E100"/>
    <trip id="404" depart="40.400000000000304" from="E0" to="E100"/>
    <trip id="405" depart="40.500000000000306" from="E0" to="E100"/>
    <trip id="406" depart="40.60000000000031" from="E0" to="E100"/>
    <trip id="407" depart="40.70000000000031" from="E0" to="E100"/>
    <trip id="408" depart="40.80000000000031" from="E0" to="E100"/>
    <trip id="409" depart="40.90000000000031" from="E0" to="E100"/>
    <trip id="410" depart="41.00000000000031" from="E0" to="E100"/>
    <trip id="411" depart="41.100000000000314" from="E0" to="E100"/>
    <trip id="412" depart="41.200000000000315" from="E0" to="E100"/>
    <trip id="413" depart="41.30000000000032" from="E0" to="E100"/>
    <trip id="414" depart="41.40000000000032" from="E0" to="E100"/>
    <trip id="415" depart="41.50000000000032" from="E0" to="E100"/>
    <trip id="416" depart="41.60000000000032" from="E0" to="E100"/>
    <trip id="417" depart="41.70000000000032" from="E0" to="E100"/>
    <trip id="418" depart="41.800000000000324" from="E0" to="E100"/>
    <trip id="419" depart="41.900000000000325" from="E0" to="E100"/>
    <trip id="420" depart="42.00000000000033" from="E0" to="E100"/>
    <trip id="421" depart="42.10000000000033" from="E0" to="E100"/>
    <trip id="422" depart="42.20000000000033" from="E0" to="E100"/>
    <trip id="423" depart="42.30000000000033" from="E0" to="E100"/>
    <trip id="424" depart="42.40000000000033" from="E0" to="E100"/>
    <trip id="425" depart="42.500000000000334" from="E0" to="E100"/>
    <trip id="426" depart="42.600000000000335" from="E0" to="E100"/>
    <trip id="427" depart="42.70000000000034" from="E0" to="E100"/>
    <trip id="428" depart="42.80000000000034" from="E0" to="E100"/>
    <trip id="429" depart="42.90000000000034" from="E0" to="E100"/>
    <trip id="430" depart="43.00000000000034" from="E0" to="E100"/>
    <trip id="431" depart="43.10000000000034" from="E0" to="E100"/>
    <trip id="432" depart="43.200000000000344" from="E0" to="E100"/>
    <trip id="433" depart="43.300000000000345" from="E0" to="E100"/>
    <trip id="434" depart="43.40000000000035" from="E0" to="E100"/>
    <trip id="435" depart="43.50000000000035" from="E0" to="E100"/>
    <trip id="436" depart="43.60000000000035" from="E0" to="E100"/>
    <trip id="437" depart="43.70000000000035" from="E0" to="E100"/>
    <trip id="438" depart="43.80000000000035" from="E0" to="E100"/>
    <trip id="439" depart="43.900000000000354" from="E0" to="E100"/>