<?xml version="1.0" encoding="UTF-8"?>

<!-- generated on 2024-02-29 18:15:09.889732 by randomTrips.py UNKNOWN
<configuration>
    <net-file value="/Users/cianmurphy/code_directories/final_year_project/experiments/central_routing/cr_exp1/random_20.net.xml"/>
    <end value="50.0"/>
</configuration>
-->

<routes xmlns:xsi="http://www.w3.org/2001/XMLSchema-instance" xsi:noNamespaceSchemaLocation="http://sumo.dlr.de/xsd/routes_file.xsd">
    <trip id="0" depart="0.00" from="E0" to="F1"/>
    <trip id="1" depart="1.00" from="E0" to="F3"/>
    <trip id="2" depart="2.00" from="E0" to="F4"/>
    <trip id="3" depart="3.00" from="E0" to="F5"/>
    <trip id="4" depart="4.00" from="E0" to="F6"/>
    <trip id="5" depart="5.00" from="E0" to="F7"/>
</routes>
