<?xml version="1.0" ?>
<routes xmlns:xsi="http://www.w3.org/2001/XMLSchema-instance" xsi:noNamespaceSchemaLocation="http://sumo.dlr.de/xsd/routes_file.xsd">
    <trip id="0" depart="0" from="E0" to="F14"/>
    <trip id="1" depart="1" from="E0" to="F12"/>
    <trip id="2" depart="2" from="E0" to="F22"/>
    <trip id="3" depart="3" from="E0" to="F7"/>
    <trip id="4" depart="4" from="E0" to="F18"/>
    <trip id="5" depart="5" from="E0" to="F14"/>
    <trip id="6" depart="6" from="E0" to="F10"/>
    <trip id="7" depart="7" from="E0" to="F18"/>
    <trip id="8" depart="8" from="E0" to="F12"/>
    <trip id="9" depart="9" from="E0" to="F1"/>
    <trip id="10" depart="10" from="E0" to="F10"/>
    <trip id="11" depart="11" from="E0" to="F18"/>
    <trip id="12" depart="12" from="E0" to="F2"/>
    <trip id="13" depart="13" from="E0" to="F11"/>
    <trip id="14" depart="14" from="E0" to="F14"/>
    <trip id="15" depart="15" from="E0" to="F10"/>
    <trip id="16" depart="16" from="E0" to="F20"/>
    <trip id="17" depart="17" from="E0" to="F14"/>
    <trip id="18" depart="18" from="E0" to="F14"/>
    <trip id="19" depart="19" from="E0" to="F3"/>
    <trip id="20" depart="20" from="E0" to="F18"/>
    <trip id="21" depart="21" from="E0" to="F7"/>
    <trip id="22" depart="22" from="E0" to="F3"/>
    <trip id="23" depart="23" from="E0" to="F13"/>
    <trip id="24" depart="24" from="E0" to="F1"/>
    <trip id="25" depart="25" from="E0" to="F7"/>
    <trip id="26" depart="26" from="E0" to="F4"/>
    <trip id="27" depart="27" from="E0" to="F20"/>
    <trip id="28" depart="28" from="E0" to="F4"/>
    <trip id="29" depart="29" from="E0" to="F15"/>
    <trip id="30" depart="30" from="E0" to="F19"/>
    <trip id="31" depart="31" from="E0" to="F6"/>
    <trip id="32" depart="32" from="E0" to="F1"/>
    <trip id="33" depart="33" from="E0" to="F11"/>
    <trip id="34" depart="34" from="E0" to="F11"/>
    <trip id="35" depart="35" from="E0" to="F22"/>
    <trip id="36" depart="36" from="E0" to="F18"/>
    <trip id="37" depart="37" from="E0" to="F15"/>
    <trip id="38" depart="38" from="E0" to="F19"/>
    <trip id="39" depart="39" from="E0" to="F17"/>
    <trip id="40" depart="40" from="E0" to="F18"/>
    <trip id="41" depart="41" from="E0" to="F21"/>
    <trip id="42" depart="42" from="E0" to="F17"/>
    <trip id="43" depart="43" from="E0" to="F4"/>
    <trip id="44" depart="44" from="E0" to="F4"/>
    <trip id="45" depart="45" from="E0" to="F13"/>
    <trip id="46" depart="46" from="E0" to="F12"/>
    <trip id="47" depart="47" from="E0" to="F15"/>
    <trip id="48" depart="48" from="E0" to="F11"/>
    <trip id="49" depart="49" from="E0" to="F5"/>
    <trip id="50" depart="50" from="E0" to="F10"/>
    <trip id="51" depart="51" from="E0" to="F12"/>
    <trip id="52" depart="52" from="E0" to="F10"/>
    <trip id="53" depart="53" from="E0" to="F13"/>
    <trip id="54" depart="54" from="E0" to="F20"/>
    <trip id="55" depart="55" from="E0" to="F14"/>
    <trip id="56" depart="56" from="E0" to="F9"/>
    <trip id="57" depart="57" from="E0" to="F4"/>
    <trip id="58" depart="58" from="E0" to="F22"/>
    <trip id="59" depart="59" from="E0" to="F2"/>
    <trip id="60" depart="60" from="E0" to="F2"/>
    <trip id="61" depart="61" from="E0" to="F10"/>
    <trip id="62" depart="62" from="E0" to="F16"/>
    <trip id="63" depart="63" from="E0" to="F3"/>
    <trip id="64" depart="64" from="E0" to="F18"/>
    <trip id="65" depart="65" from="E0" to="F12"/>
    <trip id="66" depart="66" from="E0" to="F12"/>
    <trip id="67" depart="67" from="E0" to="F1"/>
    <trip id="68" depart="68" from="E0" to="F16"/>
    <trip id="69" depart="69" from="E0" to="F1"/>
    <trip id="70" depart="70" from="E0" to="F8"/>
    <trip id="71" depart="71" from="E0" to="F3"/>
    <trip id="72" depart="72" from="E0" to="F16"/>
    <trip id="73" depart="73" from="E0" to="F11"/>
    <trip id="74" depart="74" from="E0" to="F19"/>
    <trip id="75" depart="75" from="E0" to="F20"/>
    <trip id="76" depart="76" from="E0" to="F18"/>
    <trip id="77" depart="77" from="E0" to="F21"/>
    <trip id="78" depart="78" from="E0" to="F6"/>
    <trip id="79" depart="79" from="E0" to="F12"/>
    <trip id="80" depart="80" from="E0" to="F1"/>
    <trip id="81" depart="81" from="E0" to="F22"/>
    <trip id="82" depart="82" from="E0" to="F5"/>
    <trip id="83" depart="83" from="E0" to="F18"/>
    <trip id="84" depart="84" from="E0" to="F13"/>
    <trip id="85" depart="85" from="E0" to="F8"/>
    <trip id="86" depart="86" from="E0" to="F17"/>
    <trip id="87" depart="87" from="E0" to="F15"/>
    <trip id="88" depart="88" from="E0" to="F17"/>
    <trip id="89" depart="89" from="E0" to="F12"/>
    <trip id="90" depart="90" from="E0" to="F6"/>
    <trip id="91" depart="91" from="E0" to="F12"/>
    <trip id="92" depart="92" from="E0" to="F8"/>
    <trip id="93" depart="93" from="E0" to="F1"/>
    <trip id="94" depart="94" from="E0" to="F1"/>
    <trip id="95" depart="95" from="E0" to="F16"/>
    <trip id="96" depart="96" from="E0" to="F20"/>
    <trip id="97" depart="97" from="E0" to="F8"/>
    <trip id="98" depart="98" from="E0" to="F11"/>
    <trip id="99" depart="99" from="E0" to="F18"/>
    <trip id="100" depart="100" from="E0" to="F1"/>
    <trip id="101" depart="101" from="E0" to="F7"/>
    <trip id="102" depart="102" from="E0" to="F12"/>
    <trip id="103" depart="103" from="E0" to="F21"/>
    <trip id="104" depart="104" from="E0" to="F16"/>
    <trip id="105" depart="105" from="E0" to="F22"/>
    <trip id="106" depart="106" from="E0" to="F19"/>
    <trip id="107" depart="107" from="E0" to="F11"/>
    <trip id="108" depart="108" from="E0" to="F4"/>
    <trip id="109" depart="109" from="E0" to="F14"/>
    <trip id="110" depart="110" from="E0" to="F13"/>
    <trip id="111" depart="111" from="E0" to="F16"/>
    <trip id="112" depart="112" from="E0" to="F4"/>
    <trip id="113" depart="113" from="E0" to="F8"/>
    <trip id="114" depart="114" from="E0" to="F8"/>
    <trip id="115" depart="115" from="E0" to="F19"/>
    <trip id="116" depart="116" from="E0" to="F7"/>
    <trip id="117" depart="117" from="E0" to="F1"/>
    <trip id="118" depart="118" from="E0" to="F18"/>
    <trip id="119" depart="119" from="E0" to="F4"/>
    <trip id="120" depart="120" from="E0" to="F2"/>
    <trip id="121" depart="121" from="E0" to="F5"/>
    <trip id="122" depart="122" from="E0" to="F5"/>
    <trip id="123" depart="123" from="E0" to="F6"/>
    <trip id="124" depart="124" from="E0" to="F9"/>
    <trip id="125" depart="125" from="E0" to="F9"/>
    <trip id="126" depart="126" from="E0" to="F3"/>
    <trip id="127" depart="127" from="E0" to="F18"/>
    <trip id="128" depart="128" from="E0" to="F8"/>
    <trip id="129" depart="129" from="E0" to="F19"/>
    <trip id="130" depart="130" from="E0" to="F22"/>
    <trip id="131" depart="131" from="E0" to="F16"/>
    <trip id="132" depart="132" from="E0" to="F7"/>
    <trip id="133" depart="133" from="E0" to="F16"/>
    <trip id="134" depart="134" from="E0" to="F5"/>
    <trip id="135" depart="135" from="E0" to="F1"/>
    <trip id="136" depart="136" from="E0" to="F14"/>
    <trip id="137" depart="137" from="E0" to="F5"/>
    <trip id="138" depart="138" from="E0" to="F7"/>
    <trip id="139" depart="139" from="E0" to="F13"/>
    <trip id="140" depart="140" from="E0" to="F14"/>
    <trip id="141" depart="141" from="E0" to="F10"/>
    <trip id="142" depart="142" from="E0" to="F12"/>
    <trip id="143" depart="143" from="E0" to="F10"/>
    <trip id="144" depart="144" from="E0" to="F5"/>
    <trip id="145" depart="145" from="E0" to="F10"/>
    <trip id="146" depart="146" from="E0" to="F10"/>
    <trip id="147" depart="147" from="E0" to="F4"/>
    <trip id="148" depart="148" from="E0" to="F18"/>
    <trip id="149" depart="149" from="E0" to="F1"/>
    <trip id="150" depart="150" from="E0" to="F4"/>
    <trip id="151" depart="151" from="E0" to="F10"/>
    <trip id="152" depart="152" from="E0" to="F4"/>
    <trip id="153" depart="153" from="E0" to="F1"/>
    <trip id="154" depart="154" from="E0" to="F1"/>
    <trip id="155" depart="155" from="E0" to="F22"/>
    <trip id="156" depart="156" from="E0" to="F20"/>
    <trip id="157" depart="157" from="E0" to="F6"/>
    <trip id="158" depart="158" from="E0" to="F17"/>
    <trip id="159" depart="159" from="E0" to="F6"/>
    <trip id="160" depart="160" from="E0" to="F19"/>
    <trip id="161" depart="161" from="E0" to="F13"/>
    <trip id="162" depart="162" from="E0" to="F5"/>
    <trip id="163" depart="163" from="E0" to="F3"/>
    <trip id="164" depart="164" from="E0" to="F21"/>
    <trip id="165" depart="165" from="E0" to="F6"/>
    <trip id="166" depart="166" from="E0" to="F10"/>
    <trip id="167" depart="167" from="E0" to="F16"/>
    <trip id="168" depart="168" from="E0" to="F13"/>
    <trip id="169" depart="169" from="E0" to="F19"/>
    <trip id="170" depart="170" from="E0" to="F5"/>
    <trip id="171" depart="171" from="E0" to="F20"/>
    <trip id="172" depart="172" from="E0" to="F3"/>
    <trip id="173" depart="173" from="E0" to="F12"/>
    <trip id="174" depart="174" from="E0" to="F7"/>
    <trip id="175" depart="175" from="E0" to="F12"/>
    <trip id="176" depart="176" from="E0" to="F10"/>
    <trip id="177" depart="177" from="E0" to="F10"/>
    <trip id="178" depart="178" from="E0" to="F19"/>
    <trip id="179" depart="179" from="E0" to="F14"/>
    <trip id="180" depart="180" from="E0" to="F13"/>
    <trip id="181" depart="181" from="E0" to="F6"/>
    <trip id="182" depart="182" from="E0" to="F19"/>
    <trip id="183" depart="183" from="E0" to="F12"/>
    <trip id="184" depart="184" from="E0" to="F6"/>
    <trip id="185" depart="185" from="E0" to="F4"/>
    <trip id="186" depart="186" from="E0" to="F1"/>
    <trip id="187" depart="187" from="E0" to="F4"/>
    <trip id="188" depart="188" from="E0" to="F2"/>
    <trip id="189" depart="189" from="E0" to="F9"/>
    <trip id="190" depart="190" from="E0" to="F12"/>
    <trip id="191" depart="191" from="E0" to="F16"/>
    <trip id="192" depart="192" from="E0" to="F4"/>
    <trip id="193" depart="193" from="E0" to="F2"/>
    <trip id="194" depart="194" from="E0" to="F22"/>
    <trip id="195" depart="195" from="E0" to="F13"/>
    <trip id="196" depart="196" from="E0" to="F20"/>
    <trip id="197" depart="197" from="E0" to="F7"/>
    <trip id="198" depart="198" from="E0" to="F3"/>
    <trip id="199" depart="199" from="E0" to="F4"/>
    <trip id="200" depart="200" from="E0" to="F3"/>
    <trip id="201" depart="201" from="E0" to="F17"/>
    <trip id="202" depart="202" from="E0" to="F3"/>
    <trip id="203" depart="203" from="E0" to="F21"/>
    <trip id="204" depart="204" from="E0" to="F19"/>
    <trip id="205" depart="205" from="E0" to="F2"/>
    <trip id="206" depart="206" from="E0" to="F14"/>
    <trip id="207" depart="207" from="E0" to="F8"/>
    <trip id="208" depart="208" from="E0" to="F7"/>
    <trip id="209" depart="209" from="E0" to="F13"/>
    <trip id="210" depart="210" from="E0" to="F11"/>
    <trip id="211" depart="211" from="E0" to="F10"/>
    <trip id="212" depart="212" from="E0" to="F20"/>
    <trip id="213" depart="213" from="E0" to="F17"/>
    <trip id="214" depart="214" from="E0" to="F18"/>
    <trip id="215" depart="215" from="E0" to="F4"/>
    <trip id="216" depart="216" from="E0" to="F9"/>
    <trip id="217" depart="217" from="E0" to="F6"/>
    <trip id="218" depart="218" from="E0" to="F3"/>
    <trip id="219" depart="219" from="E0" to="F21"/>
    <trip id="220" depart="220" from="E0" to="F5"/>
    <trip id="221" depart="221" from="E0" to="F3"/>
    <trip id="222" depart="222" from="E0" to="F2"/>
    <trip id="223" depart="223" from="E0" to="F4"/>
    <trip id="224" depart="224" from="E0" to="F2"/>
    <trip id="225" depart="225" from="E0" to="F22"/>
    <trip id="226" depart="226" from="E0" to="F9"/>
    <trip id="227" depart="227" from="E0" to="F10"/>
    <trip id="228" depart="228" from="E0" to="F8"/>
    <trip id="229" depart="229" from="E0" to="F9"/>
    <trip id="230" depart="230" from="E0" to="F18"/>
    <trip id="231" depart="231" from="E0" to="F20"/>
    <trip id="232" depart="232" from="E0" to="F8"/>
    <trip id="233" depart="233" from="E0" to="F12"/>
    <trip id="234" depart="234" from="E0" to="F10"/>
    <trip id="235" depart="235" from="E0" to="F18"/>
    <trip id="236" depart="236" from="E0" to="F5"/>
    <trip id="237" depart="237" from="E0" to="F9"/>
    <trip id="238" depart="238" from="E0" to="F15"/>
    <trip id="239" depart="239" from="E0" to="F1"/>
    <trip id="240" depart="240" from="E0" to="F11"/>
    <trip id="241" depart="241" from="E0" to="F20"/>
    <trip id="242" depart="242" from="E0" to="F5"/>
    <trip id="243" depart="243" from="E0" to="F5"/>
    <trip id="244" depart="244" from="E0" to="F13"/>
    <trip id="245" depart="245" from="E0" to="F10"/>
    <trip id="246" depart="246" from="E0" to="F2"/>
    <trip id="247" depart="247" from="E0" to="F9"/>
    <trip id="248" depart="248" from="E0" to="F1"/>
    <trip id="249" depart="249" from="E0" to="F5"/>
    <trip id="250" depart="250" from="E0" to="F21"/>
    <trip id="251" depart="251" from="E0" to="F10"/>
    <trip id="252" depart="252" from="E0" to="F14"/>
    <trip id="253" depart="253" from="E0" to="F17"/>
    <trip id="254" depart="254" from="E0" to="F9"/>
    <trip id="255" depart="255" from="E0" to="F22"/>
    <trip id="256" depart="256" from="E0" to="F10"/>
    <trip id="257" depart="257" from="E0" to="F16"/>
    <trip id="258" depart="258" from="E0" to="F18"/>
    <trip id="259" depart="259" from="E0" to="F10"/>
    <trip id="260" depart="260" from="E0" to="F14"/>
    <trip id="261" depart="261" from="E0" to="F11"/>
    <trip id="262" depart="262" from="E0" to="F17"/>
    <trip id="263" depart="263" from="E0" to="F18"/>
    <trip id="264" depart="264" from="E0" to="F6"/>
    <trip id="265" depart="265" from="E0" to="F1"/>
    <trip id="266" depart="266" from="E0" to="F18"/>
    <trip id="267" depart="267" from="E0" to="F8"/>
    <trip id="268" depart="268" from="E0" to="F21"/>
    <trip id="269" depart="269" from="E0" to="F16"/>
    <trip id="270" depart="270" from="E0" to="F4"/>
    <trip id="271" depart="271" from="E0" to="F1"/>
    <trip id="272" depart="272" from="E0" to="F11"/>
    <trip id="273" depart="273" from="E0" to="F19"/>
    <trip id="274" depart="274" from="E0" to="F2"/>
    <trip id="275" depart="275" from="E0" to="F17"/>
    <trip id="276" depart="276" from="E0" to="F1"/>
    <trip id="277" depart="277" from="E0" to="F18"/>
    <trip id="278" depart="278" from="E0" to="F4"/>
    <trip id="279" depart="279" from="E0" to="F11"/>
    <trip id="280" depart="280" from="E0" to="F10"/>
    <trip id="281" depart="281" from="E0" to="F8"/>
    <trip id="282" depart="282" from="E0" to="F4"/>
    <trip id="283" depart="283" from="E0" to="F14"/>
    <trip id="284" depart="284" from="E0" to="F18"/>
    <trip id="285" depart="285" from="E0" to="F18"/>
    <trip id="286" depart="286" from="E0" to="F15"/>
    <trip id="287" depart="287" from="E0" to="F19"/>
    <trip id="288" depart="288" from="E0" to="F12"/>
    <trip id="289" depart="289" from="E0" to="F6"/>
    <trip id="290" depart="290" from="E0" to="F9"/>
    <trip id="291" depart="291" from="E0" to="F20"/>
    <trip id="292" depart="292" from="E0" to="F1"/>
    <trip id="293" depart="293" from="E0" to="F5"/>
    <trip id="294" depart="294" from="E0" to="F6"/>
    <trip id="295" depart="295" from="E0" to="F1"/>
    <trip id="296" depart="296" from="E0" to="F5"/>
    <trip id="297" depart="297" from="E0" to="F13"/>
    <trip id="298" depart="298" from="E0" to="F13"/>
    <trip id="299" depart="299" from="E0" to="F4"/>
    <trip id="300" depart="300" from="E0" to="F9"/>
    <trip id="301" depart="301" from="E0" to="F3"/>
    <trip id="302" depart="302" from="E0" to="F7"/>
    <trip id="303" depart="303" from="E0" to="F2"/>
    <trip id="304" depart="304" from="E0" to="F18"/>
    <trip id="305" depart="305" from="E0" to="F18"/>
    <trip id="306" depart="306" from="E0" to="F20"/>
    <trip id="307" depart="307" from="E0" to="F2"/>
    <trip id="308" depart="308" from="E0" to="F4"/>
    <trip id="309" depart="309" from="E0" to="F9"/>
    <trip id="310" depart="310" from="E0" to="F4"/>
    <trip id="311" depart="311" from="E0" to="F16"/>
    <trip id="312" depart="312" from="E0" to="F17"/>
    <trip id="313" depart="313" from="E0" to="F5"/>
    <trip id="314" depart="314" from="E0" to="F22"/>
    <trip id="315" depart="315" from="E0" to="F21"/>
    <trip id="316" depart="316" from="E0" to="F12"/>
    <trip id="317" depart="317" from="E0" to="F1"/>
    <trip id="318" depart="318" from="E0" to="F20"/>
    <trip id="319" depart="319" from="E0" to="F5"/>
    <trip id="320" depart="320" from="E0" to="F22"/>
    <trip id="321" depart="321" from="E0" to="F22"/>
    <trip id="322" depart="322" from="E0" to="F20"/>
    <trip id="323" depart="323" from="E0" to="F16"/>
    <trip id="324" depart="324" from="E0" to="F5"/>
    <trip id="325" depart="325" from="E0" to="F18"/>
    <trip id="326" depart="326" from="E0" to="F8"/>
    <trip id="327" depart="327" from="E0" to="F8"/>
    <trip id="328" depart="328" from="E0" to="F10"/>
    <trip id="329" depart="329" from="E0" to="F13"/>
    <trip id="330" depart="330" from="E0" to="F19"/>
    <trip id="331" depart="331" from="E0" to="F3"/>
    <trip id="332" depart="332" from="E0" to="F15"/>
    <trip id="333" depart="333" from="E0" to="F15"/>
    <trip id="334" depart="334" from="E0" to="F16"/>
    <trip id="335" depart="335" from="E0" to="F20"/>
    <trip id="336" depart="336" from="E0" to="F12"/>
    <trip id="337" depart="337" from="E0" to="F18"/>
    <trip id="338" depart="338" from="E0" to="F16"/>
    <trip id="339" depart="339" from="E0" to="F17"/>
    <trip id="340" depart="340" from="E0" to="F15"/>
    <trip id="341" depart="341" from="E0" to="F20"/>
    <trip id="342" depart="342" from="E0" to="F4"/>
    <trip id="343" depart="343" from="E0" to="F14"/>
    <trip id="344" depart="344" from="E0" to="F10"/>
    <trip id="345" depart="345" from="E0" to="F1"/>
    <trip id="346" depart="346" from="E0" to="F18"/>
    <trip id="347" depart="347" from="E0" to="F12"/>
    <trip id="348" depart="348" from="E0" to="F8"/>
    <trip id="349" depart="349" from="E0" to="F1"/>
    <trip id="350" depart="350" from="E0" to="F6"/>
    <trip id="351" depart="351" from="E0" to="F9"/>
    <trip id="352" depart="352" from="E0" to="F21"/>
    <trip id="353" depart="353" from="E0" to="F21"/>
    <trip id="354" depart="354" from="E0" to="F6"/>
    <trip id="355" depart="355" from="E0" to="F1"/>
    <trip id="356" depart="356" from="E0" to="F1"/>
    <trip id="357" depart="357" from="E0" to="F4"/>
    <trip id="358" depart="358" from="E0" to="F16"/>
    <trip id="359" depart="359" from="E0" to="F19"/>
    <trip id="360" depart="360" from="E0" to="F15"/>
    <trip id="361" depart="361" from="E0" to="F6"/>
    <trip id="362" depart="362" from="E0" to="F9"/>
    <trip id="363" depart="363" from="E0" to="F13"/>
    <trip id="364" depart="364" from="E0" to="F2"/>
    <trip id="365" depart="365" from="E0" to="F22"/>
    <trip id="366" depart="366" from="E0" to="F4"/>
    <trip id="367" depart="367" from="E0" to="F16"/>
    <trip id="368" depart="368" from="E0" to="F22"/>
    <trip id="369" depart="369" from="E0" to="F21"/>
    <trip id="370" depart="370" from="E0" to="F19"/>
    <trip id="371" depart="371" from="E0" to="F17"/>
    <trip id="372" depart="372" from="E0" to="F8"/>
    <trip id="373" depart="373" from="E0" to="F12"/>
    <trip id="374" depart="374" from="E0" to="F21"/>
    <trip id="375" depart="375" from="E0" to="F18"/>
    <trip id="376" depart="376" from="E0" to="F14"/>
    <trip id="377" depart="377" from="E0" to="F4"/>
    <trip id="378" depart="378" from="E0" to="F6"/>
    <trip id="379" depart="379" from="E0" to="F15"/>
    <trip id="380" depart="380" from="E0" to="F7"/>
    <trip id="381" depart="381" from="E0" to="F7"/>
    <trip id="382" depart="382" from="E0" to="F11"/>
    <trip id="383" depart="383" from="E0" to="F6"/>
    <trip id="384" depart="384" from="E0" to="F18"/>
    <trip id="385" depart="385" from="E0" to="F4"/>
    <trip id="386" depart="386" from="E0" to="F14"/>
    <trip id="387" depart="387" from="E0" to="F21"/>
    <trip id="388" depart="388" from="E0" to="F4"/>
    <trip id="389" depart="389" from="E0" to="F3"/>
    <trip id="390" depart="390" from="E0" to="F22"/>
    <trip id="391" depart="391" from="E0" to="F16"/>
    <trip id="392" depart="392" from="E0" to="F17"/>
    <trip id="393" depart="393" from="E0" to="F18"/>
    <trip id="394" depart="394" from="E0" to="F21"/>
    <trip id="395" depart="395" from="E0" to="F21"/>
    <trip id="396" depart="396" from="E0" to="F1"/>
    <trip id="397" depart="397" from="E0" to="F11"/>
    <trip id="398" depart="398" from="E0" to="F8"/>
    <trip id="399" depart="399" from="E0" to="F22"/>
    <trip id="400" depart="400" from="E0" to="F21"/>
    <trip id="401" depart="401" from="E0" to="F3"/>
    <trip id="402" depart="402" from="E0" to="F22"/>
    <trip id="403" depart="403" from="E0" to="F11"/>
    <trip id="404" depart="404" from="E0" to="F21"/>
    <trip id="405" depart="405" from="E0" to="F12"/>
    <trip id="406" depart="406" from="E0" to="F16"/>
    <trip id="407" depart="407" from="E0" to="F15"/>
    <trip id="408" depart="408" from="E0" to="F21"/>
    <trip id="409" depart="409" from="E0" to="F1"/>
    <trip id="410" depart="410" from="E0" to="F6"/>
    <trip id="411" depart="411" from="E0" to="F9"/>
    <trip id="412" depart="412" from="E0" to="F1"/>
    <trip id="413" depart="413" from="E0" to="F9"/>
    <trip id="414" depart="414" from="E0" to="F12"/>
    <trip id="415" depart="415" from="E0" to="F7"/>
    <trip id="416" depart="416" from="E0" to="F18"/>
    <trip id="417" depart="417" from="E0" to="F17"/>
    <trip id="418" depart="418" from="E0" to="F1"/>
    <trip id="419" depart="419" from="E0" to="F9"/>
    <trip id="420" depart="420" from="E0" to="F14"/>
    <trip id="421" depart="421" from="E0" to="F10"/>
    <trip id="422" depart="422" from="E0" to="F16"/>
    <trip id="423" depart="423" from="E0" to="F21"/>
    <trip id="424" depart="424" from="E0" to="F1"/>
    <trip id="425" depart="425" from="E0" to="F12"/>
    <trip id="426" depart="426" from="E0" to="F21"/>
    <trip id="427" depart="427" from="E0" to="F8"/>
    <trip id="428" depart="428" from="E0" to="F13"/>
    <trip id="429" depart="429" from="E0" to="F22"/>
    <trip id="430" depart="430" from="E0" to="F16"/>
    <trip id="431" depart="431" from="E0" to="F3"/>
    <trip id="432" depart="432" from="E0" to="F3"/>
    <trip id="433" depart="433" from="E0" to="F14"/>
    <trip id="434" depart="434" from="E0" to="F15"/>
    <trip id="435" depart="435" from="E0" to="F7"/>
    <trip id="436" depart="436" from="E0" to="F19"/>
    <trip id="437" depart="437" from="E0" to="F3"/>
    <trip id="438" depart="438" from="E0" to="F11"/>
    <trip id="439" depart="439" from="E0" to="F18"/>
    <trip id="440" depart="440" from="E0" to="F17"/>
    <trip id="441" depart="441" from="E0" to="F18"/>
    <trip id="442" depart="442" from="E0" to="F20"/>
    <trip id="443" depart="443" from="E0" to="F1"/>
    <trip id="444" depart="444" from="E0" to="F18"/>
    <trip id="445" depart="445" from="E0" to="F18"/>
    <trip id="446" depart="446" from="E0" to="F8"/>
    <trip id="447" depart="447" from="E0" to="F16"/>
    <trip id="448" depart="448" from="E0" to="F11"/>
    <trip id="449" depart="449" from="E0" to="F12"/>
    <trip id="450" depart="450" from="E0" to="F3"/>
    <trip id="451" depart="451" from="E0" to="F20"/>
    <trip id="452" depart="452" from="E0" to="F5"/>
    <trip id="453" depart="453" from="E0" to="F18"/>
    <trip id="454" depart="454" from="E0" to="F14"/>
    <trip id="455" depart="455" from="E0" to="F17"/>
    <trip id="456" depart="456" from="E0" to="F8"/>
    <trip id="457" depart="457" from="E0" to="F18"/>
    <trip id="458" depart="458" from="E0" to="F1"/>
    <trip id="459" depart="459" from="E0" to="F15"/>
    <trip id="460" depart="460" from="E0" to="F11"/>
    <trip id="461" depart="461" from="E0" to="F8"/>
    <trip id="462" depart="462" from="E0" to="F5"/>
    <trip id="463" depart="463" from="E0" to="F12"/>
    <trip id="464" depart="464" from="E0" to="F4"/>
    <trip id="465" depart="465" from="E0" to="F2"/>
    <trip id="466" depart="466" from="E0" to="F10"/>
    <trip id="467" depart="467" from="E0" to="F13"/>
    <trip id="468" depart="468" from="E0" to="F8"/>
    <trip id="469" depart="469" from="E0" to="F3"/>
    <trip id="470" depart="470" from="E0" to="F16"/>
    <trip id="471" depart="471" from="E0" to="F13"/>
    <trip id="472" depart="472" from="E0" to="F15"/>
    <trip id="473" depart="473" from="E0" to="F19"/>
    <trip id="474" depart="474" from="E0" to="F20"/>
    <trip id="475" depart="475" from="E0" to="F10"/>
    <trip id="476" depart="476" from="E0" to="F15"/>
    <trip id="477" depart="477" from="E0" to="F22"/>
    <trip id="478" depart="478" from="E0" to="F6"/>
    <trip id="479" depart="479" from="E0" to="F4"/>
    <trip id="480" depart="480" from="E0" to="F13"/>
    <trip id="481" depart="481" from="E0" to="F16"/>
    <trip id="482" depart="482" from="E0" to="F7"/>
    <trip id="483" depart="483" from="E0" to="F22"/>
    <trip id="484" depart="484" from="E0" to="F12"/>
    <trip id="485" depart="485" from="E0" to="F20"/>
    <trip id="486" depart="486" from="E0" to="F12"/>
    <trip id="487" depart="487" from="E0" to="F1"/>
    <trip id="488" depart="488" from="E0" to="F9"/>
    <trip id="489" depart="489" from="E0" to="F17"/>
    <trip id="490" depart="490" from="E0" to="F3"/>
    <trip id="491" depart="491" from="E0" to="F13"/>
    <trip id="492" depart="492" from="E0" to="F19"/>
    <trip id="493" depart="493" from="E0" to="F6"/>
    <trip id="494" depart="494" from="E0" to="F19"/>
    <trip id="495" depart="495" from="E0" to="F7"/>
    <trip id="496" depart="496" from="E0" to="F16"/>
    <trip id="497" depart="497" from="E0" to="F3"/>
    <trip id="498" depart="498" from="E0" to="F16"/>
    <trip id="499" depart="499" from="E0" to="F13"/>
    <trip id="500" depart="500" from="E0" to="F17"/>
    <trip id="501" depart="501" from="E0" to="F19"/>
    <trip id="502" depart="502" from="E0" to="F15"/>
    <trip id="503" depart="503" from="E0" to="F7"/>
    <trip id="504" depart="504" from="E0" to="F21"/>
    <trip id="505" depart="505" from="E0" to="F5"/>
    <trip id="506" depart="506" from="E0" to="F4"/>
    <trip id="507" depart="507" from="E0" to="F13"/>
    <trip id="508" depart="508" from="E0" to="F1"/>
    <trip id="509" depart="509" from="E0" to="F6"/>
    <trip id="510" depart="510" from="E0" to="F8"/>
    <trip id="511" depart="511" from="E0" to="F8"/>
    <trip id="512" depart="512" from="E0" to="F4"/>
    <trip id="513" depart="513" from="E0" to="F9"/>
    <trip id="514" depart="514" from="E0" to="F5"/>
    <trip id="515" depart="515" from="E0" to="F7"/>
    <trip id="516" depart="516" from="E0" to="F3"/>
    <trip id="517" depart="517" from="E0" to="F8"/>
    <trip id="518" depart="518" from="E0" to="F2"/>
    <trip id="519" depart="519" from="E0" to="F11"/>
    <trip id="520" depart="520" from="E0" to="F20"/>
    <trip id="521" depart="521" from="E0" to="F11"/>
    <trip id="522" depart="522" from="E0" to="F14"/>
    <trip id="523" depart="523" from="E0" to="F18"/>
    <trip id="524" depart="524" from="E0" to="F19"/>
    <trip id="525" depart="525" from="E0" to="F19"/>
    <trip id="526" depart="526" from="E0" to="F5"/>
    <trip id="527" depart="527" from="E0" to="F15"/>
    <trip id="528" depart="528" from="E0" to="F21"/>
    <trip id="529" depart="529" from="E0" to="F14"/>
    <trip id="530" depart="530" from="E0" to="F18"/>
    <trip id="531" depart="531" from="E0" to="F6"/>
    <trip id="532" depart="532" from="E0" to="F8"/>
    <trip id="533" depart="533" from="E0" to="F12"/>
    <trip id="534" depart="534" from="E0" to="F4"/>
    <trip id="535" depart="535" from="E0" to="F9"/>
    <trip id="536" depart="536" from="E0" to="F3"/>
    <trip id="537" depart="537" from="E0" to="F3"/>
    <trip id="538" depart="538" from="E0" to="F3"/>
    <trip id="539" depart="539" from="E0" to="F2"/>
    <trip id="540" depart="540" from="E0" to="F21"/>
    <trip id="541" depart="541" from="E0" to="F7"/>
    <trip id="542" depart="542" from="E0" to="F19"/>
    <trip id="543" depart="543" from="E0" to="F4"/>
    <trip id="544" depart="544" from="E0" to="F19"/>
    <trip id="545" depart="545" from="E0" to="F4"/>
    <trip id="546" depart="546" from="E0" to="F19"/>
    <trip id="547" depart="547" from="E0" to="F19"/>
    <trip id="548" depart="548" from="E0" to="F8"/>
    <trip id="549" depart="549" from="E0" to="F8"/>
    <trip id="550" depart="550" from="E0" to="F15"/>
    <trip id="551" depart="551" from="E0" to="F8"/>
    <trip id="552" depart="552" from="E0" to="F7"/>
    <trip id="553" depart="553" from="E0" to="F16"/>
    <trip id="554" depart="554" from="E0" to="F2"/>
    <trip id="555" depart="555" from="E0" to="F17"/>
    <trip id="556" depart="556" from="E0" to="F9"/>
    <trip id="557" depart="557" from="E0" to="F11"/>
    <trip id="558" depart="558" from="E0" to="F16"/>
    <trip id="559" depart="559" from="E0" to="F8"/>
    <trip id="560" depart="560" from="E0" to="F3"/>
    <trip id="561" depart="561" from="E0" to="F14"/>
    <trip id="562" depart="562" from="E0" to="F13"/>
    <trip id="563" depart="563" from="E0" to="F18"/>
    <trip id="564" depart="564" from="E0" to="F11"/>
    <trip id="565" depart="565" from="E0" to="F22"/>
    <trip id="566" depart="566" from="E0" to="F12"/>
    <trip id="567" depart="567" from="E0" to="F20"/>
    <trip id="568" depart="568" from="E0" to="F9"/>
    <trip id="569" depart="569" from="E0" to="F1"/>
    <trip id="570" depart="570" from="E0" to="F12"/>