<?xml version="1.0" ?>
<routes xmlns:xsi="http://www.w3.org/2001/XMLSchema-instance" xsi:noNamespaceSchemaLocation="http://sumo.dlr.de/xsd/routes_file.xsd">
    <trip id="0" depart="0" from="E0" to="F9"/>
    <trip id="1" depart="1" from="E0" to="F11"/>
    <trip id="2" depart="2" from="E0" to="F4"/>
    <trip id="3" depart="3" from="E0" to="F15"/>
    <trip id="4" depart="4" from="E0" to="F14"/>
    <trip id="5" depart="5" from="E0" to="F3"/>
    <trip id="6" depart="6" from="E0" to="F10"/>
    <trip id="7" depart="7" from="E0" to="F10"/>
    <trip id="8" depart="8" from="E0" to="F8"/>
    <trip id="9" depart="9" from="E0" to="F21"/>
    <trip id="10" depart="10" from="E0" to="F11"/>
    <trip id="11" depart="11" from="E0" to="F19"/>
    <trip id="12" depart="12" from="E0" to="F17"/>
    <trip id="13" depart="13" from="E0" to="F8"/>
    <trip id="14" depart="14" from="E0" to="F15"/>
    <trip id="15" depart="15" from="E0" to="F6"/>
    <trip id="16" depart="16" from="E0" to="F6"/>
    <trip id="17" depart="17" from="E0" to="F19"/>
    <trip id="18" depart="18" from="E0" to="F20"/>
    <trip id="19" depart="19" from="E0" to="F22"/>
    <trip id="20" depart="20" from="E0" to="F2"/>
    <trip id="21" depart="21" from="E0" to="F18"/>
    <trip id="22" depart="22" from="E0" to="F15"/>
    <trip id="23" depart="23" from="E0" to="F4"/>
    <trip id="24" depart="24" from="E0" to="F10"/>
    <trip id="25" depart="25" from="E0" to="F3"/>
    <trip id="26" depart="26" from="E0" to="F18"/>
    <trip id="27" depart="27" from="E0" to="F14"/>
    <trip id="28" depart="28" from="E0" to="F10"/>
    <trip id="29" depart="29" from="E0" to="F10"/>
    <trip id="30" depart="30" from="E0" to="F10"/>
    <trip id="31" depart="31" from="E0" to="F2"/>
    <trip id="32" depart="32" from="E0" to="F11"/>
    <trip id="33" depart="33" from="E0" to="F3"/>
    <trip id="34" depart="34" from="E0" to="F8"/>
    <trip id="35" depart="35" from="E0" to="F12"/>
    <trip id="36" depart="36" from="E0" to="F13"/>
    <trip id="37" depart="37" from="E0" to="F18"/>
    <trip id="38" depart="38" from="E0" to="F11"/>
    <trip id="39" depart="39" from="E0" to="F13"/>
    <trip id="40" depart="40" from="E0" to="F6"/>
    <trip id="41" depart="41" from="E0" to="F22"/>
    <trip id="42" depart="42" from="E0" to="F4"/>
    <trip id="43" depart="43" from="E0" to="F16"/>
    <trip id="44" depart="44" from="E0" to="F8"/>
    <trip id="45" depart="45" from="E0" to="F8"/>
    <trip id="46" depart="46" from="E0" to="F19"/>
    <trip id="47" depart="47" from="E0" to="F3"/>
    <trip id="48" depart="48" from="E0" to="F16"/>
    <trip id="49" depart="49" from="E0" to="F6"/>
    <trip id="50" depart="50" from="E0" to="F20"/>
    <trip id="51" depart="51" from="E0" to="F22"/>
    <trip id="52" depart="52" from="E0" to="F7"/>
    <trip id="53" depart="53" from="E0" to="F6"/>
    <trip id="54" depart="54" from="E0" to="F3"/>
    <trip id="55" depart="55" from="E0" to="F6"/>
    <trip id="56" depart="56" from="E0" to="F8"/>
    <trip id="57" depart="57" from="E0" to="F5"/>
    <trip id="58" depart="58" from="E0" to="F5"/>
    <trip id="59" depart="59" from="E0" to="F20"/>
    <trip id="60" depart="60" from="E0" to="F12"/>
    <trip id="61" depart="61" from="E0" to="F15"/>
    <trip id="62" depart="62" from="E0" to="F11"/>
    <trip id="63" depart="63" from="E0" to="F21"/>
    <trip id="64" depart="64" from="E0" to="F20"/>
    <trip id="65" depart="65" from="E0" to="F15"/>
    <trip id="66" depart="66" from="E0" to="F13"/>
    <trip id="67" depart="67" from="E0" to="F15"/>
    <trip id="68" depart="68" from="E0" to="F8"/>
    <trip id="69" depart="69" from="E0" to="F10"/>
    <trip id="70" depart="70" from="E0" to="F22"/>
    <trip id="71" depart="71" from="E0" to="F10"/>
    <trip id="72" depart="72" from="E0" to="F4"/>
    <trip id="73" depart="73" from="E0" to="F13"/>
    <trip id="74" depart="74" from="E0" to="F2"/>
    <trip id="75" depart="75" from="E0" to="F16"/>
    <trip id="76" depart="76" from="E0" to="F14"/>
    <trip id="77" depart="77" from="E0" to="F2"/>
    <trip id="78" depart="78" from="E0" to="F2"/>
    <trip id="79" depart="79" from="E0" to="F14"/>
    <trip id="80" depart="80" from="E0" to="F5"/>
    <trip id="81" depart="81" from="E0" to="F16"/>
    <trip id="82" depart="82" from="E0" to="F18"/>
    <trip id="83" depart="83" from="E0" to="F1"/>
    <trip id="84" depart="84" from="E0" to="F11"/>
    <trip id="85" depart="85" from="E0" to="F2"/>
    <trip id="86" depart="86" from="E0" to="F20"/>
    <trip id="87" depart="87" from="E0" to="F7"/>
    <trip id="88" depart="88" from="E0" to="F15"/>
    <trip id="89" depart="89" from="E0" to="F6"/>
    <trip id="90" depart="90" from="E0" to="F2"/>
    <trip id="91" depart="91" from="E0" to="F6"/>
    <trip id="92" depart="92" from="E0" to="F16"/>
    <trip id="93" depart="93" from="E0" to="F5"/>
    <trip id="94" depart="94" from="E0" to="F21"/>
    <trip id="95" depart="95" from="E0" to="F3"/>
    <trip id="96" depart="96" from="E0" to="F16"/>
    <trip id="97" depart="97" from="E0" to="F16"/>
    <trip id="98" depart="98" from="E0" to="F7"/>
    <trip id="99" depart="99" from="E0" to="F11"/>
    <trip id="100" depart="100" from="E0" to="F20"/>
    <trip id="101" depart="101" from="E0" to="F2"/>
    <trip id="102" depart="102" from="E0" to="F2"/>
    <trip id="103" depart="103" from="E0" to="F7"/>
    <trip id="104" depart="104" from="E0" to="F18"/>
    <trip id="105" depart="105" from="E0" to="F5"/>
    <trip id="106" depart="106" from="E0" to="F3"/>
    <trip id="107" depart="107" from="E0" to="F11"/>
    <trip id="108" depart="108" from="E0" to="F1"/>
    <trip id="109" depart="109" from="E0" to="F19"/>
    <trip id="110" depart="110" from="E0" to="F16"/>
    <trip id="111" depart="111" from="E0" to="F15"/>
    <trip id="112" depart="112" from="E0" to="F10"/>
    <trip id="113" depart="113" from="E0" to="F8"/>
    <trip id="114" depart="114" from="E0" to="F12"/>
    <trip id="115" depart="115" from="E0" to="F18"/>
    <trip id="116" depart="116" from="E0" to="F9"/>
    <trip id="117" depart="117" from="E0" to="F14"/>
    <trip id="118" depart="118" from="E0" to="F14"/>
    <trip id="119" depart="119" from="E0" to="F12"/>
    <trip id="120" depart="120" from="E0" to="F16"/>
    <trip id="121" depart="121" from="E0" to="F13"/>
    <trip id="122" depart="122" from="E0" to="F12"/>
    <trip id="123" depart="123" from="E0" to="F8"/>
    <trip id="124" depart="124" from="E0" to="F20"/>
    <trip id="125" depart="125" from="E0" to="F8"/>
    <trip id="126" depart="126" from="E0" to="F7"/>
    <trip id="127" depart="127" from="E0" to="F19"/>
    <trip id="128" depart="128" from="E0" to="F6"/>
    <trip id="129" depart="129" from="E0" to="F22"/>
    <trip id="130" depart="130" from="E0" to="F8"/>
    <trip id="131" depart="131" from="E0" to="F4"/>
    <trip id="132" depart="132" from="E0" to="F1"/>
    <trip id="133" depart="133" from="E0" to="F12"/>
    <trip id="134" depart="134" from="E0" to="F10"/>
    <trip id="135" depart="135" from="E0" to="F15"/>
    <trip id="136" depart="136" from="E0" to="F5"/>
    <trip id="137" depart="137" from="E0" to="F12"/>
    <trip id="138" depart="138" from="E0" to="F14"/>
    <trip id="139" depart="139" from="E0" to="F6"/>
    <trip id="140" depart="140" from="E0" to="F14"/>
    <trip id="141" depart="141" from="E0" to="F5"/>
    <trip id="142" depart="142" from="E0" to="F19"/>
    <trip id="143" depart="143" from="E0" to="F2"/>
    <trip id="144" depart="144" from="E0" to="F21"/>
    <trip id="145" depart="145" from="E0" to="F3"/>
    <trip id="146" depart="146" from="E0" to="F16"/>
    <trip id="147" depart="147" from="E0" to="F10"/>
    <trip id="148" depart="148" from="E0" to="F22"/>
    <trip id="149" depart="149" from="E0" to="F21"/>
    <trip id="150" depart="150" from="E0" to="F18"/>
    <trip id="151" depart="151" from="E0" to="F12"/>
    <trip id="152" depart="152" from="E0" to="F6"/>
    <trip id="153" depart="153" from="E0" to="F17"/>
    <trip id="154" depart="154" from="E0" to="F8"/>
    <trip id="155" depart="155" from="E0" to="F17"/>
    <trip id="156" depart="156" from="E0" to="F10"/>
    <trip id="157" depart="157" from="E0" to="F17"/>
    <trip id="158" depart="158" from="E0" to="F4"/>
    <trip id="159" depart="159" from="E0" to="F19"/>
    <trip id="160" depart="160" from="E0" to="F15"/>
    <trip id="161" depart="161" from="E0" to="F15"/>
    <trip id="162" depart="162" from="E0" to="F10"/>
    <trip id="163" depart="163" from="E0" to="F19"/>
    <trip id="164" depart="164" from="E0" to="F10"/>
    <trip id="165" depart="165" from="E0" to="F13"/>
    <trip id="166" depart="166" from="E0" to="F18"/>
    <trip id="167" depart="167" from="E0" to="F13"/>
    <trip id="168" depart="168" from="E0" to="F8"/>
    <trip id="169" depart="169" from="E0" to="F8"/>
    <trip id="170" depart="170" from="E0" to="F17"/>
    <trip id="171" depart="171" from="E0" to="F14"/>
    <trip id="172" depart="172" from="E0" to="F12"/>
    <trip id="173" depart="173" from="E0" to="F11"/>
    <trip id="174" depart="174" from="E0" to="F3"/>
    <trip id="175" depart="175" from="E0" to="F8"/>
    <trip id="176" depart="176" from="E0" to="F9"/>
    <trip id="177" depart="177" from="E0" to="F2"/>
    <trip id="178" depart="178" from="E0" to="F21"/>
    <trip id="179" depart="179" from="E0" to="F2"/>
    <trip id="180" depart="180" from="E0" to="F6"/>
    <trip id="181" depart="181" from="E0" to="F22"/>
    <trip id="182" depart="182" from="E0" to="F4"/>
    <trip id="183" depart="183" from="E0" to="F1"/>
    <trip id="184" depart="184" from="E0" to="F10"/>
    <trip id="185" depart="185" from="E0" to="F3"/>
    <trip id="186" depart="186" from="E0" to="F12"/>
    <trip id="187" depart="187" from="E0" to="F8"/>
    <trip id="188" depart="188" from="E0" to="F2"/>
    <trip id="189" depart="189" from="E0" to="F17"/>
    <trip id="190" depart="190" from="E0" to="F4"/>
    <trip id="191" depart="191" from="E0" to="F19"/>
    <trip id="192" depart="192" from="E0" to="F3"/>
    <trip id="193" depart="193" from="E0" to="F9"/>
    <trip id="194" depart="194" from="E0" to="F4"/>
    <trip id="195" depart="195" from="E0" to="F6"/>
    <trip id="196" depart="196" from="E0" to="F12"/>
    <trip id="197" depart="197" from="E0" to="F17"/>
    <trip id="198" depart="198" from="E0" to="F17"/>
    <trip id="199" depart="199" from="E0" to="F1"/>
    <trip id="200" depart="200" from="E0" to="F17"/>
    <trip id="201" depart="201" from="E0" to="F17"/>
    <trip id="202" depart="202" from="E0" to="F17"/>
    <trip id="203" depart="203" from="E0" to="F3"/>
    <trip id="204" depart="204" from="E0" to="F18"/>
    <trip id="205" depart="205" from="E0" to="F5"/>
    <trip id="206" depart="206" from="E0" to="F20"/>
    <trip id="207" depart="207" from="E0" to="F6"/>
    <trip id="208" depart="208" from="E0" to="F18"/>
    <trip id="209" depart="209" from="E0" to="F7"/>
    <trip id="210" depart="210" from="E0" to="F10"/>
    <trip id="211" depart="211" from="E0" to="F7"/>
    <trip id="212" depart="212" from="E0" to="F11"/>
    <trip id="213" depart="213" from="E0" to="F4"/>
    <trip id="214" depart="214" from="E0" to="F11"/>
    <trip id="215" depart="215" from="E0" to="F9"/>
    <trip id="216" depart="216" from="E0" to="F1"/>
    <trip id="217" depart="217" from="E0" to="F22"/>
    <trip id="218" depart="218" from="E0" to="F20"/>
    <trip id="219" depart="219" from="E0" to="F21"/>
    <trip id="220" depart="220" from="E0" to="F22"/>
    <trip id="221" depart="221" from="E0" to="F13"/>
    <trip id="222" depart="222" from="E0" to="F13"/>
    <trip id="223" depart="223" from="E0" to="F17"/>
    <trip id="224" depart="224" from="E0" to="F10"/>
    <trip id="225" depart="225" from="E0" to="F5"/>
    <trip id="226" depart="226" from="E0" to="F12"/>
    <trip id="227" depart="227" from="E0" to="F12"/>
    <trip id="228" depart="228" from="E0" to="F3"/>
    <trip id="229" depart="229" from="E0" to="F10"/>
    <trip id="230" depart="230" from="E0" to="F19"/>
    <trip id="231" depart="231" from="E0" to="F10"/>
    <trip id="232" depart="232" from="E0" to="F6"/>
    <trip id="233" depart="233" from="E0" to="F5"/>
    <trip id="234" depart="234" from="E0" to="F6"/>
    <trip id="235" depart="235" from="E0" to="F14"/>
    <trip id="236" depart="236" from="E0" to="F16"/>
    <trip id="237" depart="237" from="E0" to="F3"/>
    <trip id="238" depart="238" from="E0" to="F6"/>
    <trip id="239" depart="239" from="E0" to="F7"/>
    <trip id="240" depart="240" from="E0" to="F11"/>
    <trip id="241" depart="241" from="E0" to="F16"/>
    <trip id="242" depart="242" from="E0" to="F2"/>
    <trip id="243" depart="243" from="E0" to="F18"/>
    <trip id="244" depart="244" from="E0" to="F13"/>
    <trip id="245" depart="245" from="E0" to="F13"/>
    <trip id="246" depart="246" from="E0" to="F3"/>
    <trip id="247" depart="247" from="E0" to="F14"/>
    <trip id="248" depart="248" from="E0" to="F18"/>
    <trip id="249" depart="249" from="E0" to="F20"/>
</routes>
