<?xml version="1.0" encoding="UTF-8"?>

<!-- generated on 2024-03-28 18:47:46.830847 by randomTrips.py UNKNOWN
<configuration>
    <net-file value="../../grid_10.net.xml"/>
    <random value="True"/>
    <end value="1000.0"/>
    <period value="0.25"/>
</configuration>
-->

<routes xmlns:xsi="http://www.w3.org/2001/XMLSchema-instance" xsi:noNamespaceSchemaLocation="http://sumo.dlr.de/xsd/routes_file.xsd">
    <trip id="0" depart="0.00" from="H5I5" to="F9E9"/>
    <trip id="1" depart="0.25" from="A8B8" to="G6G5"/>
    <trip id="2" depart="0.50" from="D4C4" to="H7H8"/>
    <trip id="3" depart="0.75" from="G7G6" to="G5G6"/>
    <trip id="4" depart="1.00" from="A1B1" to="B2C2"/>
    <trip id="5" depart="1.25" from="J3J2" to="I4I5"/>
    <trip id="6" depart="1.50" from="J6J5" to="J6I6"/>
    <trip id="7" depart="1.75" from="E5F5" to="G0H0"/>
    <trip id="8" depart="2.00" from="G1F1" to="A3A2"/>
    <trip id="9" depart="2.25" from="G0G1" to="G5H5"/>
    <trip id="10" depart="2.50" from="G5G6" to="H8I8"/>
    <trip id="11" depart="2.75" from="B1B0" to="H6H5"/>
    <trip id="12" depart="3.00" from="C4D4" to="D9C9"/>
    <trip id="13" depart="3.25" from="C9C8" to="H4G4"/>
    <trip id="14" depart="3.50" from="I9H9" to="I3J3"/>
    <trip id="15" depart="3.75" from="D3D4" to="D8E8"/>
    <trip id="16" depart="4.00" from="I0H0" to="D0E0"/>
    <trip id="17" depart="4.25" from="B6B7" to="I8I9"/>
    <trip id="18" depart="4.50" from="H9I9" to="H5H6"/>
    <trip id="19" depart="4.75" from="B0B1" to="G6G7"/>
    <trip id="20" depart="5.00" from="E6D6" to="G3F3"/>
    <trip id="21" depart="5.25" from="G6H6" to="F5E5"/>
    <trip id="22" depart="5.50" from="F1E1" to="A8B8"/>
    <trip id="23" depart="5.75" from="A9B9" to="A7A8"/>
    <trip id="24" depart="6.00" from="J3J2" to="H0I0"/>
    <trip id="25" depart="6.25" from="G1G0" to="B2C2"/>
    <trip id="26" depart="6.50" from="C1C2" to="I9J9"/>
    <trip id="27" depart="6.75" from="H4G4" to="E8F8"/>
    <trip id="28" depart="7.00" from="C4D4" to="C9B9"/>
    <trip id="29" depart="7.25" from="F8F9" to="J8J7"/>
    <trip id="30" depart="7.50" from="F3G3" to="B4B3"/>
    <trip id="31" depart="7.75" from="H2H1" to="B1C1"/>
    <trip id="32" depart="8.00" from="D3D4" to="H3H4"/>
    <trip id="33" depart="8.25" from="C6C7" to="E0E1"/>
    <trip id="34" depart="8.50" from="B1B0" to="B2B1"/>
    <trip id="35" depart="8.75" from="H4H5" to="F7F6"/>
    <trip id="36" depart="9.00" from="E1F1" to="I6J6"/>
    <trip id="37" depart="9.25" from="G0H0" to="A6A5"/>
    <trip id="38" depart="9.50" from="G7G8" to="B8B9"/>
    <trip id="39" depart="9.75" from="H8H7" to="C6C7"/>
    <trip id="40" depart="10.00" from="G0F0" to="B3C3"/>
    <trip id="41" depart="10.25" from="B2A2" to="C8D8"/>
    <trip id="42" depart="10.50" from="C3B3" to="G3G4"/>
    <trip id="43" depart="10.75" from="H0H1" to="G1G2"/>
    <trip id="44" depart="11.00" from="F7F8" to="A3B3"/>
    <trip id="45" depart="11.25" from="B1C1" to="H7I7"/>
    <trip id="46" depart="11.50" from="D6D5" to="E8E7"/>
    <trip id="47" depart="11.75" from="E6D6" to="C2C3"/>
    <trip id="48" depart="12.00" from="A2B2" to="B9B8"/>
    <trip id="49" depart="12.25" from="E2E1" to="I8H8"/>
    <trip id="50" depart="12.50" from="D5C5" to="C5C4"/>
    <trip id="51" depart="12.75" from="A4A5" to="F0E0"/>
    <trip id="52" depart="13.00" from="J6I6" to="E4E5"/>
    <trip id="53" depart="13.25" from="F0G0" to="G8F8"/>
    <trip id="54" depart="13.50" from="A1B1" to="I5H5"/>
    <trip id="55" depart="13.75" from="H1H0" to="G7F7"/>
    <trip id="56" depart="14.00" from="A5A4" to="A5B5"/>
    <trip id="57" depart="14.25" from="E1E0" to="C6C5"/>
    <trip id="58" depart="14.50" from="J9J8" to="F1F0"/>
    <trip id="59" depart="14.75" from="G5H5" to="G6G5"/>
    <trip id="60" depart="15.00" from="D5C5" to="D3E3"/>
    <trip id="61" depart="15.25" from="B2A2" to="E2E1"/>
    <trip id="62" depart="15.50" from="H0H1" to="G3G2"/>
    <trip id="63" depart="15.75" from="E1D1" to="D6D5"/>
    <trip id="64" depart="16.00" from="D5D6" to="I7I8"/>
    <trip id="65" depart="16.25" from="A5B5" to="D8C8"/>
    <trip id="66" depart="16.50" from="D4D3" to="A4A3"/>
    <trip id="67" depart="16.75" from="D8D9" to="F8F7"/>
    <trip id="68" depart="17.00" from="B0C0" to="G6F6"/>
    <trip id="69" depart="17.25" from="A2A3" to="G3F3"/>
    <trip id="70" depart="17.50" from="B5B6" to="E3F3"/>
    <trip id="71" depart="17.75" from="F7G7" to="B8B7"/>
    <trip id="72" depart="18.00" from="I8I7" to="I5J5"/>
    <trip id="73" depart="18.25" from="I4I5" to="E1D1"/>
    <trip id="74" depart="18.50" from="A1B1" to="I5I4"/>
    <trip id="75" depart="18.75" from="J6J5" to="J2J1"/>
    <trip id="76" depart="19.00" from="F5F4" to="C3C4"/>
    <trip id="77" depart="19.25" from="F9G9" to="H3H4"/>
    <trip id="78" depart="19.50" from="D2D3" to="H7H6"/>
    <trip id="79" depart="19.75" from="F3F4" to="E9D9"/>
    <trip id="80" depart="20.00" from="I4I5" to="E8E9"/>
    <trip id="81" depart="20.25" from="F2E2" to="J0J1"/>
    <trip id="82" depart="20.50" from="F2G2" to="J6I6"/>
    <trip id="83" depart="20.75" from="J5I5" to="A0B0"/>
    <trip id="84" depart="21.00" from="I3I2" to="J8J9"/>
    <trip id="85" depart="21.25" from="F1F2" to="C2C1"/>
    <trip id="86" depart="21.50" from="J6J7" to="F3F2"/>
    <trip id="87" depart="21.75" from="D5D4" to="B7B8"/>
    <trip id="88" depart="22.00" from="E0D0" to="C7C6"/>
    <trip id="89" depart="22.25" from="D8E8" to="B0A0"/>
    <trip id="90" depart="22.50" from="E8E9" to="I7I8"/>
    <trip id="91" depart="22.75" from="E9E8" to="D7D6"/>
    <trip id="92" depart="23.00" from="E7E8" to="A8A9"/>
    <trip id="93" depart="23.25" from="D5D6" to="I2I3"/>
    <trip id="94" depart="23.50" from="D4E4" to="C5B5"/>
    <trip id="95" depart="23.75" from="H7G7" to="J9I9"/>
    <trip id="96" depart="24.00" from="I3I4" to="C1C0"/>
    <trip id="97" depart="24.25" from="G1G0" to="I3H3"/>
    <trip id="98" depart="24.50" from="H4H3" to="J5I5"/>
    <trip id="99" depart="24.75" from="C0B0" to="J8J7"/>
    <trip id="100" depart="25.00" from="E5E6" to="G2F2"/>
    <trip id="101" depart="25.25" from="A0A1" to="G7H7"/>
    <trip id="102" depart="25.50" from="C6D6" to="B2B3"/>
    <trip id="103" depart="25.75" from="A4A5" to="H3H4"/>
    <trip id="104" depart="26.00" from="H1G1" to="I8J8"/>
    <trip id="105" depart="26.25" from="I7J7" to="C4C5"/>
    <trip id="106" depart="26.50" from="I7I8" to="I2J2"/>
    <trip id="107" depart="26.75" from="B3B4" to="C2C3"/>
    <trip id="108" depart="27.00" from="I2I3" to="J9I9"/>
    <trip id="109" depart="27.25" from="C5C4" to="I2J2"/>
    <trip id="110" depart="27.50" from="I5I6" to="C4C5"/>
    <trip id="111" depart="27.75" from="F8F9" to="H2G2"/>
    <trip id="112" depart="28.00" from="C6B6" to="C5C6"/>
    <trip id="113" depart="28.25" from="E4E3" to="A1B1"/>
    <trip id="114" depart="28.50" from="E3D3" to="D2D1"/>
    <trip id="115" depart="28.75" from="H4G4" to="B7B6"/>
    <trip id="116" depart="29.00" from="I5J5" to="J4I4"/>
    <trip id="117" depart="29.25" from="G0F0" to="C5C4"/>
    <trip id="118" depart="29.50" from="E3D3" to="G7G6"/>
    <trip id="119" depart="29.75" from="D2D3" to="G3H3"/>
    <trip id="120" depart="30.00" from="G5H5" to="G9G8"/>
    <trip id="121" depart="30.25" from="I4H4" to="D8D9"/>
    <trip id="122" depart="30.50" from="E6D6" to="G6H6"/>
    <trip id="123" depart="30.75" from="G5G6" to="I7H7"/>
    <trip id="124" depart="31.00" from="B7B6" to="E5E6"/>
    <trip id="125" depart="31.25" from="B8A8" to="C9C8"/>
    <trip id="126" depart="31.50" from="C3C4" to="B4C4"/>
    <trip id="127" depart="31.75" from="H0I0" to="A4A5"/>
    <trip id="128" depart="32.00" from="A0A1" to="B6C6"/>
    <trip id="129" depart="32.25" from="E1F1" to="B8B7"/>
    <trip id="130" depart="32.50" from="G1G0" to="C0B0"/>
    <trip id="131" depart="32.75" from="D9E9" to="J0J1"/>
    <trip id="132" depart="33.00" from="B5C5" to="D5D4"/>
    <trip id="133" depart="33.25" from="A0A1" to="F8E8"/>
    <trip id="134" depart="33.50" from="H6H7" to="G9F9"/>
    <trip id="135" depart="33.75" from="C7C6" to="B1B0"/>
    <trip id="136" depart="34.00" from="J3I3" to="B7B8"/>
    <trip id="137" depart="34.25" from="B7B6" to="C1C0"/>
    <trip id="138" depart="34.50" from="A8A9" to="G9H9"/>
    <trip id="139" depart="34.75" from="F7G7" to="J9I9"/>
    <trip id="140" depart="35.00" from="I7H7" to="A2A3"/>
    <trip id="141" depart="35.25" from="J8J7" to="J4I4"/>
    <trip id="142" depart="35.50" from="F6E6" to="E2F2"/>
    <trip id="143" depart="35.75" from="H6H7" to="D2C2"/>
    <trip id="144" depart="36.00" from="D6C6" to="G7H7"/>
    <trip id="145" depart="36.25" from="E6E5" to="F5E5"/>
    <trip id="146" depart="36.50" from="E7D7" to="H5I5"/>
    <trip id="147" depart="36.75" from="C7C8" to="F4F5"/>
    <trip id="148" depart="37.00" from="G3G4" to="B5A5"/>
    <trip id="149" depart="37.25" from="C8C9" to="C2C1"/>
    <trip id="150" depart="37.50" from="D2E2" to="G9G8"/>
    <trip id="151" depart="37.75" from="G5G6" to="H3H4"/>
    <trip id="152" depart="38.00" from="I8H8" to="C1C0"/>
    <trip id="153" depart="38.25" from="D1D0" to="C2B2"/>
    <trip id="154" depart="38.50" from="D6E6" to="I5H5"/>
    <trip id="155" depart="38.75" from="J5J6" to="B6B5"/>
    <trip id="156" depart="39.00" from="F4E4" to="H9H8"/>
    <trip id="157" depart="39.25" from="F9G9" to="B9C9"/>
    <trip id="158" depart="39.50" from="G2G1" to="I6J6"/>
    <trip id="159" depart="39.75" from="G5H5" to="E5F5"/>
    <trip id="160" depart="40.00" from="G1G2" to="G9F9"/>
    <trip id="161" depart="40.25" from="H5H6" to="I5H5"/>
    <trip id="162" depart="40.50" from="E7E6" to="B7B8"/>
    <trip id="163" depart="40.75" from="J1J0" to="H5H6"/>
    <trip id="164" depart="41.00" from="G8G7" to="J9J8"/>
    <trip id="165" depart="41.25" from="J3I3" to="G7G6"/>
    <trip id="166" depart="41.50" from="J4I4" to="I7J7"/>
    <trip id="167" depart="41.75" from="I7I6" to="F0E0"/>
    <trip id="168" depart="42.00" from="A2A3" to="C9B9"/>
    <trip id="169" depart="42.25" from="D6D5" to="I4I5"/>
    <trip id="170" depart="42.50" from="H0G0" to="D2D1"/>
    <trip id="171" depart="42.75" from="A9B9" to="A2B2"/>
    <trip id="172" depart="43.00" from="H1I1" to="G6F6"/>
    <trip id="173" depart="43.25" from="F7F8" to="D7C7"/>
    <trip id="174" depart="43.50" from="B6C6" to="C4C3"/>
    <trip id="175" depart="43.75" from="C2D2" to="H4I4"/>
    <trip id="176" depart="44.00" from="G3G4" to="A5B5"/>
    <trip id="177" depart="44.25" from="B5B6" to="I2I1"/>
    <trip id="178" depart="44.50" from="C0B0" to="A2A1"/>
    <trip id="179" depart="44.75" from="H0H1" to="A8B8"/>
    <trip id="180" depart="45.00" from="J5I5" to="J7I7"/>
    <trip id="181" depart="45.25" from="A7A6" to="I5H5"/>
    <trip id="182" depart="45.50" from="B4B5" to="F5E5"/>
    <trip id="183" depart="45.75" from="H1H0" to="C2C3"/>
    <trip id="184" depart="46.00" from="D3D4" to="F0F1"/>
    <trip id="185" depart="46.25" from="C4D4" to="G6H6"/>
    <trip id="186" depart="46.50" from="D1D2" to="F4G4"/>
    <trip id="187" depart="46.75" from="B2C2" to="C2B2"/>
    <trip id="188" depart="47.00" from="E0F0" to="B3C3"/>
    <trip id="189" depart="47.25" from="F6F5" to="J6I6"/>
    <trip id="190" depart="47.50" from="F1F0" to="C7D7"/>
    <trip id="191" depart="47.75" from="E2E3" to="C6C7"/>
    <trip id="192" depart="48.00" from="H2I2" to="B8C8"/>
    <trip id="193" depart="48.25" from="F4E4" to="J8J7"/>
    <trip id="194" depart="48.50" from="F3G3" to="D9D8"/>
    <trip id="195" depart="48.75" from="A8A7" to="A1B1"/>
    <trip id="196" depart="49.00" from="I1J1" to="G9H9"/>
    <trip id="197" depart="49.25" from="I5I4" to="F3E3"/>
    <trip id="198" depart="49.50" from="D3C3" to="A2A1"/>
    <trip id="199" depart="49.75" from="H6I6" to="F3F2"/>
    <trip id="200" depart="50.00" from="B2B3" to="I4I5"/>
    <trip id="201" depart="50.25" from="J5J6" to="D9C9"/>
    <trip id="202" depart="50.50" from="H4H3" to="F8E8"/>
    <trip id="203" depart="50.75" from="A5B5" to="F5F6"/>
    <trip id="204" depart="51.00" from="C4C5" to="F3F2"/>
    <trip id="205" depart="51.25" from="G7H7" to="C7C8"/>
    <trip id="206" depart="51.50" from="E9D9" to="E2F2"/>
    <trip id="207" depart="51.75" from="B5A5" to="I5H5"/>
    <trip id="208" depart="52.00" from="H6H5" to="J9J8"/>
    <trip id="209" depart="52.25" from="F6F5" to="F3E3"/>
    <trip id="210" depart="52.50" from="F2E2" to="A4A5"/>
    <trip id="211" depart="52.75" from="H8G8" to="C2B2"/>
    <trip id="212" depart="53.00" from="F0F1" to="J7J6"/>
    <trip id="213" depart="53.25" from="F7F6" to="J8I8"/>
    <trip id="214" depart="53.50" from="I4J4" to="J9I9"/>
    <trip id="215" depart="53.75" from="D4C4" to="B0B1"/>
    <trip id="216" depart="54.00" from="A5B5" to="C7C6"/>
    <trip id="217" depart="54.25" from="I4I3" to="D8C8"/>
    <trip id="218" depart="54.50" from="H2I2" to="G4G3"/>
    <trip id="219" depart="54.75" from="F7E7" to="F6F5"/>
    <trip id="220" depart="55.00" from="C8C7" to="B5C5"/>
    <trip id="221" depart="55.25" from="D8C8" to="F2E2"/>
    <trip id="222" depart="55.50" from="I2I1" to="I9J9"/>
    <trip id="223" depart="55.75" from="F5F6" to="H7H6"/>
    <trip id="224" depart="56.00" from="C6C7" to="B4A4"/>
    <trip id="225" depart="56.25" from="H9H8" to="H2H1"/>
    <trip id="226" depart="56.50" from="H7H6" to="A2B2"/>
    <trip id="227" depart="56.75" from="E4E3" to="B2C2"/>
    <trip id="228" depart="57.00" from="E1F1" to="E2D2"/>
    <trip id="229" depart="57.25" from="G9G8" to="B3A3"/>
    <trip id="230" depart="57.50" from="E2D2" to="G8G7"/>
    <trip id="231" depart="57.75" from="G9F9" to="G1G2"/>
    <trip id="232" depart="58.00" from="C2B2" to="F5F4"/>
    <trip id="233" depart="58.25" from="B7C7" to="E1D1"/>
    <trip id="234" depart="58.50" from="E2E3" to="J9J8"/>
    <trip id="235" depart="58.75" from="J1I1" to="B8C8"/>
    <trip id="236" depart="59.00" from="B3A3" to="C3C2"/>
    <trip id="237" depart="59.25" from="B5B4" to="G9F9"/>
    <trip id="238" depart="59.50" from="H9H8" to="E6D6"/>
    <trip id="239" depart="59.75" from="E8E9" to="B6A6"/>
    <trip id="240" depart="60.00" from="G8H8" to="J7J8"/>
    <trip id="241" depart="60.25" from="B7B8" to="G3G4"/>
    <trip id="242" depart="60.50" from="F9G9" to="G7G8"/>
    <trip id="243" depart="60.75" from="H3I3" to="A0B0"/>
    <trip id="244" depart="61.00" from="H7H8" to="G9H9"/>
    <trip id="245" depart="61.25" from="H5H4" to="E9F9"/>
    <trip id="246" depart="61.50" from="H9H8" to="H7I7"/>
    <trip id="247" depart="61.75" from="I8I7" to="H4I4"/>
    <trip id="248" depart="62.00" from="G8F8" to="D6D5"/>
    <trip id="249" depart="62.25" from="F2F1" to="H1G1"/>
    <trip id="250" depart="62.50" from="E6D6" to="J2I2"/>
    <trip id="251" depart="62.75" from="G8H8" to="I6I5"/>
    <trip id="252" depart="63.00" from="B8B9" to="D4C4"/>
    <trip id="253" depart="63.25" from="G3H3" to="B8A8"/>
    <trip id="254" depart="63.50" from="I7I6" to="D9E9"/>
    <trip id="255" depart="63.75" from="I7J7" to="A6A7"/>
    <trip id="256" depart="64.00" from="I7J7" to="D5D6"/>
    <trip id="257" depart="64.25" from="I3H3" to="H8G8"/>
    <trip id="258" depart="64.50" from="G5G4" to="H8H7"/>
    <trip id="259" depart="64.75" from="J3I3" to="B4B3"/>
    <trip id="260" depart="65.00" from="I8H8" to="H1H0"/>
    <trip id="261" depart="65.25" from="A6A7" to="E7F7"/>
    <trip id="262" depart="65.50" from="I7H7" to="D6C6"/>
    <trip id="263" depart="65.75" from="E4F4" to="I8I7"/>
    <trip id="264" depart="66.00" from="A2B2" to="C2C1"/>
    <trip id="265" depart="66.25" from="D8D7" to="E4E5"/>
    <trip id="266" depart="66.50" from="F3F2" to="H5H4"/>
    <trip id="267" depart="66.75" from="F3F2" to="J5J6"/>
    <trip id="268" depart="67.00" from="G7H7" to="D7C7"/>
    <trip id="269" depart="67.25" from="A1B1" to="I8I9"/>
    <trip id="270" depart="67.50" from="E0E1" to="H6I6"/>
    <trip id="271" depart="67.75" from="G9H9" to="G5H5"/>
    <trip id="272" depart="68.00" from="E9D9" to="H5H4"/>
    <trip id="273" depart="68.25" from="B3B2" to="D0E0"/>
    <trip id="274" depart="68.50" from="J2J1" to="C3D3"/>
    <trip id="275" depart="68.75" from="B1B0" to="A3B3"/>
    <trip id="276" depart="69.00" from="J2J3" to="I3I4"/>
    <trip id="277" depart="69.25" from="E9E8" to="F6G6"/>
    <trip id="278" depart="69.50" from="D3E3" to="H0G0"/>
    <trip id="279" depart="69.75" from="J6J5" to="B6A6"/>
    <trip id="280" depart="70.00" from="A4B4" to="I6I5"/>
    <trip id="281" depart="70.25" from="D7D6" to="C2D2"/>
    <trip id="282" depart="70.50" from="E3E2" to="C2C1"/>
    <trip id="283" depart="70.75" from="J4J3" to="B7B8"/>
    <trip id="284" depart="71.00" from="G7G6" to="C7C6"/>
    <trip id="285" depart="71.25" from="D7C7" to="H3H2"/>
    <trip id="286" depart="71.50" from="I1I2" to="F7G7"/>
    <trip id="287" depart="71.75" from="J7I7" to="F4F3"/>
    <trip id="288" depart="72.00" from="A1A2" to="F1F2"/>
    <trip id="289" depart="72.25" from="G5F5" to="C7D7"/>
    <trip id="290" depart="72.50" from="J9J8" to="A1B1"/>
    <trip id="291" depart="72.75" from="B1B2" to="H4I4"/>
    <trip id="292" depart="73.00" from="F2G2" to="G2G3"/>
    <trip id="293" depart="73.25" from="D1D0" to="H6G6"/>
    <trip id="294" depart="73.50" from="I1I0" to="H3H2"/>
    <trip id="295" depart="73.75" from="A3B3" to="A5B5"/>
    <trip id="296" depart="74.00" from="H8H9" to="A7A8"/>
    <trip id="297" depart="74.25" from="H6I6" to="C3D3"/>
    <trip id="298" depart="74.50" from="A5B5" to="B7B6"/>
    <trip id="299" depart="74.75" from="I1I0" to="B7A7"/>
    <trip id="300" depart="75.00" from="E8F8" to="J8I8"/>
    <trip id="301" depart="75.25" from="B0A0" to="C8C9"/>
    <trip id="302" depart="75.50" from="G3F3" to="B8B7"/>
    <trip id="303" depart="75.75" from="I0J0" to="I6I5"/>
    <trip id="304" depart="76.00" from="J1I1" to="A8B8"/>
    <trip id="305" depart="76.25" from="I8H8" to="B4B5"/>
    <trip id="306" depart="76.50" from="I5I6" to="B9B8"/>
    <trip id="307" depart="76.75" from="I5I4" to="F6G6"/>
    <trip id="308" depart="77.00" from="F1F0" to="H0H1"/>
    <trip id="309" depart="77.25" from="J8J9" to="C9D9"/>
    <trip id="310" depart="77.50" from="D3D2" to="E0D0"/>
    <trip id="311" depart="77.75" from="C8D8" to="A7A8"/>
    <trip id="312" depart="78.00" from="C5C6" to="A1A2"/>
    <trip id="313" depart="78.25" from="F9F8" to="E6E5"/>
    <trip id="314" depart="78.50" from="I4I3" to="A2A3"/>
    <trip id="315" depart="78.75" from="G2G3" to="G8F8"/>
    <trip id="316" depart="79.00" from="J7I7" to="A3A4"/>
    <trip id="317" depart="79.25" from="I7J7" to="D2C2"/>
    <trip id="318" depart="79.50" from="I1H1" to="F5G5"/>
    <trip id="319" depart="79.75" from="J9J8" to="B6C6"/>
    <trip id="320" depart="80.00" from="H1I1" to="A8A9"/>
    <trip id="321" depart="80.25" from="C3C2" to="A2B2"/>
    <trip id="322" depart="80.50" from="A2A3" to="H0H1"/>
    <trip id="323" depart="80.75" from="C6C5" to="H2H1"/>
    <trip id="324" depart="81.00" from="D3C3" to="D7D6"/>
    <trip id="325" depart="81.25" from="D0C0" to="F7F8"/>
    <trip id="326" depart="81.50" from="H4G4" to="D0C0"/>
    <trip id="327" depart="81.75" from="I1H1" to="G2F2"/>
    <trip id="328" depart="82.00" from="G7G8" to="F9E9"/>
    <trip id="329" depart="82.25" from="C7C6" to="E3E4"/>
    <trip id="330" depart="82.50" from="C3B3" to="I1H1"/>
    <trip id="331" depart="82.75" from="G8F8" to="E3E2"/>
    <trip id="332" depart="83.00" from="J0J1" to="J0J1"/>
    <trip id="333" depart="83.25" from="C1B1" to="I6I7"/>
    <trip id="334" depart="83.50" from="H7H6" to="G7F7"/>
    <trip id="335" depart="83.75" from="A6A5" to="H9I9"/>
    <trip id="336" depart="84.00" from="I7I6" to="I7H7"/>
    <trip id="337" depart="84.25" from="D2D3" to="F7G7"/>
    <trip id="338" depart="84.50" from="E1D1" to="H3H2"/>
    <trip id="339" depart="84.75" from="C2C3" to="D1D2"/>
    <trip id="340" depart="85.00" from="G7G6" to="A4A3"/>
    <trip id="341" depart="85.25" from="F7F8" to="G8F8"/>
    <trip id="342" depart="85.50" from="H5G5" to="B1B2"/>
    <trip id="343" depart="85.75" from="E7D7" to="J6I6"/>
    <trip id="344" depart="86.00" from="E3F3" to="E6D6"/>
    <trip id="345" depart="86.25" from="H6G6" to="B9C9"/>
    <trip id="346" depart="86.50" from="I6I5" to="H5H6"/>
    <trip id="347" depart="86.75" from="H2H3" to="J9J8"/>
    <trip id="348" depart="87.00" from="B2C2" to="H7H8"/>
    <trip id="349" depart="87.25" from="A2A1" to="C7B7"/>
    <trip id="350" depart="87.50" from="A9B9" to="B4A4"/>
    <trip id="351" depart="87.75" from="C0D0" to="E7F7"/>
    <trip id="352" depart="88.00" from="D1D2" to="E0F0"/>
    <trip id="353" depart="88.25" from="E0D0" to="F6G6"/>
    <trip id="354" depart="88.50" from="C2D2" to="D7D6"/>
    <trip id="355" depart="88.75" from="C9B9" to="B2B1"/>
    <trip id="356" depart="89.00" from="B0A0" to="F5F6"/>
    <trip id="357" depart="89.25" from="F8F9" to="C8C7"/>
    <trip id="358" depart="89.50" from="F8F9" to="G1H1"/>
    <trip id="359" depart="89.75" from="G7G8" to="A0B0"/>
    <trip id="360" depart="90.00" from="J2J3" to="F1G1"/>
    <trip id="361" depart="90.25" from="F1F2" to="J2I2"/>
    <trip id="362" depart="90.50" from="F8F7" to="C0B0"/>
    <trip id="363" depart="90.75" from="D8D9" to="E4D4"/>
    <trip id="364" depart="91.00" from="J0J1" to="G5H5"/>
    <trip id="365" depart="91.25" from="H2H3" to="I0I1"/>
    <trip id="366" depart="91.50" from="J1J0" to="E3D3"/>
    <trip id="367" depart="91.75" from="I2I1" to="D9C9"/>
    <trip id="368" depart="92.00" from="C0B0" to="F0E0"/>
    <trip id="369" depart="92.25" from="G9H9" to="E2E3"/>
    <trip id="370" depart="92.50" from="C8C9" to="F4F3"/>
    <trip id="371" depart="92.75" from="H1H0" to="I5I4"/>
    <trip id="372" depart="93.00" from="E6D6" to="E9F9"/>
    <trip id="373" depart="93.25" from="J2J3" to="A3A4"/>
    <trip id="374" depart="93.50" from="H3H4" to="B4A4"/>
    <trip id="375" depart="93.75" from="A7A6" to="B6B5"/>
    <trip id="376" depart="94.00" from="I2H2" to="H9I9"/>
    <trip id="377" depart="94.25" from="F8F9" to="H9G9"/>
    <trip id="378" depart="94.50" from="F4F5" to="F2F1"/>
    <trip id="379" depart="94.75" from="D6D5" to="G8G7"/>
    <trip id="380" depart="95.00" from="E7D7" to="H5I5"/>
    <trip id="381" depart="95.25" from="C1C0" to="C1B1"/>
    <trip id="382" depart="95.50" from="F4F5" to="F4F3"/>
    <trip id="383" depart="95.75" from="A5A4" to="E3F3"/>
    <trip id="384" depart="96.00" from="I0H0" to="B5B6"/>
    <trip id="385" depart="96.25" from="G9H9" to="D7D6"/>
    <trip id="386" depart="96.50" from="A8B8" to="F9G9"/>
    <trip id="387" depart="96.75" from="J6J7" to="C4C5"/>
    <trip id="388" depart="97.00" from="B5A5" to="E6F6"/>
    <trip id="389" depart="97.25" from="I4I3" to="H4G4"/>
    <trip id="390" depart="97.50" from="F8F9" to="I4I5"/>
    <trip id="391" depart="97.75" from="I1H1" to="I8I7"/>
    <trip id="392" depart="98.00" from="B7C7" to="F8F7"/>
    <trip id="393" depart="98.25" from="E2D2" to="B2C2"/>
    <trip id="394" depart="98.50" from="A8A7" to="B1C1"/>
    <trip id="395" depart="98.75" from="G4G3" to="I0I1"/>
    <trip id="396" depart="99.00" from="J7J8" to="F7G7"/>
    <trip id="397" depart="99.25" from="D8D7" to="F6F7"/>
    <trip id="398" depart="99.50" from="I5H5" to="F0F1"/>
    <trip id="399" depart="99.75" from="G1F1" to="E6E5"/>
    <trip id="400" depart="100.00" from="I3I4" to="D6D7"/>
    <trip id="401" depart="100.25" from="F2E2" to="E8E7"/>
    <trip id="402" depart="100.50" from="G9H9" to="I6J6"/>
    <trip id="403" depart="100.75" from="B8B9" to="E4F4"/>
    <trip id="404" depart="101.00" from="G4F4" to="B9B8"/>
    <trip id="405" depart="101.25" from="D2C2" to="F7G7"/>
    <trip id="406" depart="101.50" from="E4D4" to="H1H2"/>
    <trip id="407" depart="101.75" from="I4I3" to="H5I5"/>
    <trip id="408" depart="102.00" from="D8D7" to="C5B5"/>
    <trip id="409" depart="102.25" from="F6F7" to="H2G2"/>
    <trip id="410" depart="102.50" from="I8I9" to="G6G5"/>
    <trip id="411" depart="102.75" from="I5I4" to="B4B5"/>
    <trip id="412" depart="103.00" from="B6C6" to="I4H4"/>
    <trip id="413" depart="103.25" from="J8J7" to="I2J2"/>
    <trip id="414" depart="103.50" from="H2H3" to="B0B1"/>
    <trip id="415" depart="103.75" from="E2D2" to="H1H0"/>
    <trip id="416" depart="104.00" from="F8F9" to="H0G0"/>
    <trip id="417" depart="104.25" from="G7F7" to="I3J3"/>
    <trip id="418" depart="104.50" from="D3E3" to="H9G9"/>
    <trip id="419" depart="104.75" from="I7J7" to="F3E3"/>
    <trip id="420" depart="105.00" from="E2F2" to="J2J3"/>
    <trip id="421" depart="105.25" from="D2D3" to="D5D6"/>
    <trip id="422" depart="105.50" from="D5D6" to="G4F4"/>
    <trip id="423" depart="105.75" from="D9C9" to="H2G2"/>
    <trip id="424" depart="106.00" from="D5C5" to="D1D2"/>
    <trip id="425" depart="106.25" from="F8G8" to="H6I6"/>
    <trip id="426" depart="106.50" from="J4I4" to="C5C4"/>
    <trip id="427" depart="106.75" from="C4C5" to="F8E8"/>
    <trip id="428" depart="107.00" from="G0H0" to="G9F9"/>
    <trip id="429" depart="107.25" from="D0C0" to="D0E0"/>
    <trip id="430" depart="107.50" from="F9G9" to="E5E6"/>
    <trip id="431" depart="107.75" from="F1F0" to="B8A8"/>
    <trip id="432" depart="108.00" from="B8B7" to="H9G9"/>
    <trip id="433" depart="108.25" from="G4G5" to="E4E5"/>
    <trip id="434" depart="108.50" from="J7J6" to="F7E7"/>
    <trip id="435" depart="108.75" from="G6F6" to="F0G0"/>
    <trip id="436" depart="109.00" from="H4G4" to="C9C8"/>
    <trip id="437" depart="109.25" from="E8F8" to="D7E7"/>
    <trip id="438" depart="109.50" from="F3F4" to="A2A1"/>
    <trip id="439" depart="109.75" from="C8C9" to="G5F5"/>
    <trip id="440" depart="110.00" from="H8I8" to="F8G8"/>
    <trip id="441" depart="110.25" from="E3F3" to="D5E5"/>
    <trip id="442" depart="110.50" from="F0F1" to="B2C2"/>
    <trip id="443" depart="110.75" from="B3B2" to="H1I1"/>
    <trip id="444" depart="111.00" from="D0D1" to="A8B8"/>
    <trip id="445" depart="111.25" from="I7H7" to="J0I0"/>
    <trip id="446" depart="111.50" from="D4E4" to="B7C7"/>
    <trip id="447" depart="111.75" from="D2D3" to="J0I0"/>
    <trip id="448" depart="112.00" from="B6C6" to="G2F2"/>
    <trip id="449" depart="112.25" from="C4D4" to="H5H4"/>
    <trip id="450" depart="112.50" from="B6C6" to="A7A8"/>
    <trip id="451" depart="112.75" from="J7J8" to="G4H4"/>
    <trip id="452" depart="113.00" from="F4G4" to="E3F3"/>
    <trip id="453" depart="113.25" from="J9I9" to="J8J9"/>
    <trip id="454" depart="113.50" from="I2J2" to="B8A8"/>
    <trip id="455" depart="113.75" from="G5H5" to="F1F0"/>
    <trip id="456" depart="114.00" from="I6H6" to="F6F7"/>
    <trip id="457" depart="114.25" from="E7D7" to="A2A3"/>
    <trip id="458" depart="114.50" from="H6H5" to="H8G8"/>
    <trip id="459" depart="114.75" from="H2G2" to="G5H5"/>
    <trip id="460" depart="115.00" from="E2E1" to="E1E2"/>
    <trip id="461" depart="115.25" from="A2A1" to="F1G1"/>
    <trip id="462" depart="115.50" from="D1E1" to="J7I7"/>
    <trip id="463" depart="115.75" from="D4C4" to="B3B4"/>
    <trip id="464" depart="116.00" from="A2A3" to="F0G0"/>
    <trip id="465" depart="116.25" from="C4D4" to="E7E6"/>
    <trip id="466" depart="116.50" from="F0E0" to="B4C4"/>
    <trip id="467" depart="116.75" from="D7C7" to="E7D7"/>
    <trip id="468" depart="117.00" from="J5J4" to="H6G6"/>
    <trip id="469" depart="117.25" from="B7A7" to="C3C4"/>
    <trip id="470" depart="117.50" from="E0E1" to="I0J0"/>
    <trip id="471" depart="117.75" from="A4B4" to="C5B5"/>
    <trip id="472" depart="118.00" from="F9G9" to="F9E9"/>
    <trip id="473" depart="118.25" from="E8E7" to="F5F4"/>
    <trip id="474" depart="118.50" from="D7D8" to="D4D3"/>
    <trip id="475" depart="118.75" from="E4F4" to="I4I3"/>
    <trip id="476" depart="119.00" from="I1I2" to="D1C1"/>
    <trip id="477" depart="119.25" from="F1G1" to="H8I8"/>
    <trip id="478" depart="119.50" from="B4A4" to="F7G7"/>
    <trip id="479" depart="119.75" from="H4I4" to="H1G1"/>
    <trip id="480" depart="120.00" from="C6D6" to="H7H6"/>
    <trip id="481" depart="120.25" from="I6I5" to="C6D6"/>
    <trip id="482" depart="120.50" from="C3C4" to="B9C9"/>
    <trip id="483" depart="120.75" from="J5J6" to="D2C2"/>
    <trip id="484" depart="121.00" from="H1I1" to="H3H4"/>
    <trip id="485" depart="121.25" from="D6E6" to="B5B6"/>
    <trip id="486" depart="121.50" from="H3G3" to="H7H8"/>
    <trip id="487" depart="121.75" from="A6A5" to="H2G2"/>
    <trip id="488" depart="122.00" from="B1B2" to="A7A6"/>
    <trip id="489" depart="122.25" from="B8C8" to="I4J4"/>
    <trip id="490" depart="122.50" from="J3J4" to="C1C2"/>
    <trip id="491" depart="122.75" from="D2D1" to="A0B0"/>
    <trip id="492" depart="123.00" from="D1D2" to="I5H5"/>
    <trip id="493" depart="123.25" from="F1F2" to="C6B6"/>
    <trip id="494" depart="123.50" from="B4A4" to="C9B9"/>
    <trip id="495" depart="123.75" from="C0C1" to="I8J8"/>
    <trip id="496" depart="124.00" from="F8G8" to="E5D5"/>
    <trip id="497" depart="124.25" from="E2E3" to="D6E6"/>
    <trip id="498" depart="124.50" from="D3E3" to="F1G1"/>
    <trip id="499" depart="124.75" from="J8I8" to="B0C0"/>
    <trip id="500" depart="125.00" from="F1F2" to="H8H9"/>
    <trip id="501" depart="125.25" from="E2E1" to="H6H5"/>
    <trip id="502" depart="125.50" from="H8H9" to="E7F7"/>
    <trip id="503" depart="125.75" from="D4D3" to="E1E0"/>
    <trip id="504" depart="126.00" from="G3G2" to="F3F4"/>
    <trip id="505" depart="126.25" from="D4C4" to="D8D7"/>
    <trip id="506" depart="126.50" from="H1I1" to="B0A0"/>
    <trip id="507" depart="126.75" from="H0I0" to="A2A1"/>
    <trip id="508" depart="127.00" from="B8A8" to="F1G1"/>
    <trip id="509" depart="127.25" from="D7D6" to="D2D1"/>