<?xml version="1.0" encoding="UTF-8"?>

<!-- generated on 2024-03-03 11:26:46.962820 by randomTrips.py UNKNOWN
<configuration>
    <net-file value="/Users/cianmurphy/code_directories/final_year_project/experiments/central_routing/cr_exp1/sim_files/net_001.net.xml"/>
    <end value="2000.0"/>
    <period value="1.0 0.25"/>
</configuration>
-->

<routes xmlns:xsi="http://www.w3.org/2001/XMLSchema-instance" xsi:noNamespaceSchemaLocation="http://sumo.dlr.de/xsd/routes_file.xsd">
    <trip id="0" depart="0.00" from="17" to="-121"/>
    <trip id="1" depart="1.00" from="-3131" to="-2756"/>
    <trip id="2" depart="2.00" from="2439" to="2453"/>
    <trip id="3" depart="3.00" from="381" to="-1517"/>
    <trip id="4" depart="4.00" from="-4469" to="-125"/>
    <trip id="5" depart="5.00" from="-2482" to="1345"/>
    <trip id="6" depart="6.00" from="-121" to="-2447"/>
    <trip id="7" depart="7.00" from="1774" to="1499"/>
    <trip id="8" depart="8.00" from="-2486" to="1895"/>
    <trip id="9" depart="9.00" from="3166" to="-1029"/>
    <trip id="10" depart="10.00" from="3162" to="2766"/>
    <trip id="11" depart="11.00" from="-3719" to="-2149"/>
    <trip id="12" depart="12.00" from="639" to="-3772"/>
    <trip id="13" depart="13.00" from="-1524" to="-1533"/>
    <trip id="14" depart="14.00" from="3603" to="1944"/>
    <trip id="15" depart="15.00" from="3162" to="3119"/>
    <trip id="16" depart="16.00" from="-882" to="728"/>
    <trip id="17" depart="17.00" from="-381" to="1523"/>
    <trip id="18" depart="18.00" from="3435" to="2149"/>
    <trip id="19" depart="19.00" from="3739" to="1783"/>
    <trip id="20" depart="20.00" from="2183" to="-1357"/>
    <trip id="21" depart="21.00" from="-2607" to="-338"/>
    <trip id="22" depart="22.00" from="-1493" to="-2881"/>
    <trip id="23" depart="23.00" from="-1535" to="-326"/>
    <trip id="24" depart="24.00" from="1533" to="-4257"/>
    <trip id="25" depart="25.00" from="-3799" to="-2486"/>
    <trip id="26" depart="26.00" from="-3095" to="608"/>
    <trip id="27" depart="27.00" from="1773" to="210"/>
    <trip id="28" depart="28.00" from="-2185" to="3119"/>
    <trip id="29" depart="29.00" from="-2168" to="-523"/>
    <trip id="30" depart="30.00" from="867" to="2198"/>
    <trip id="31" depart="31.00" from="117" to="2494"/>
    <trip id="32" depart="32.00" from="3497" to="3438"/>
    <trip id="33" depart="33.00" from="-2714" to="-126"/>
    <trip id="34" depart="34.00" from="-3439" to="-3162"/>
    <trip id="35" depart="35.00" from="-2447" to="614"/>
    <trip id="36" depart="36.00" from="3772" to="-3611"/>
    <trip id="37" depart="37.00" from="1797" to="-588"/>
    <trip id="38" depart="38.00" from="505" to="-882"/>
    <trip id="39" depart="39.00" from="-3093" to="-2979"/>
    <trip id="40" depart="40.00" from="1199" to="-3131"/>
    <trip id="41" depart="41.00" from="1357" to="4527"/>
    <trip id="42" depart="42.00" from="-3897" to="-2724"/>
    <trip id="43" depart="43.00" from="882" to="1359"/>
    <trip id="44" depart="44.00" from="-1523" to="-1359"/>
    <trip id="45" depart="45.00" from="-1773" to="2173"/>
    <trip id="46" depart="46.00" from="3093" to="-642"/>
    <trip id="47" depart="47.00" from="-1425" to="-533"/>
    <trip id="48" depart="48.00" from="880" to="1429"/>
    <trip id="49" depart="49.00" from="696" to="3897"/>
    <trip id="50" depart="50.00" from="-1057" to="2979"/>
    <trip id="51" depart="51.00" from="2006" to="1464"/>
    <trip id="52" depart="52.00" from="-3095" to="2200"/>
    <trip id="53" depart="53.00" from="-1774" to="-7"/>
    <trip id="54" depart="54.00" from="-533" to="639"/>
    <trip id="55" depart="55.00" from="3772" to="-3131"/>
    <trip id="56" depart="56.00" from="-679" to="-2201"/>
    <trip id="57" depart="57.00" from="504" to="4049"/>
    <trip id="58" depart="58.00" from="-330" to="2198"/>
    <trip id="59" depart="59.00" from="1441" to="-2128"/>
    <trip id="60" depart="60.00" from="2756" to="1483"/>
    <trip id="61" depart="61.00" from="2903" to="1429"/>
    <trip id="62" depart="62.00" from="-1005" to="-3739"/>
    <trip id="63" depart="63.00" from="-119" to="589"/>
    <trip id="64" depart="64.00" from="3773" to="3799"/>
    <trip id="65" depart="65.00" from="-336" to="-1404"/>
    <trip id="66" depart="66.00" from="3773" to="621"/>
    <trip id="67" depart="67.00" from="-15" to="1201"/>
    <trip id="68" depart="68.00" from="-1429" to="330"/>
    <trip id="69" depart="69.00" from="2872" to="-19"/>
    <trip id="70" depart="70.00" from="-608" to="1501"/>
    <trip id="71" depart="71.00" from="-3093" to="4050"/>
    <trip id="72" depart="72.00" from="-4473" to="-25"/>
    <trip id="73" depart="73.00" from="1005" to="3119"/>
    <trip id="74" depart="74.00" from="-2412" to="-361"/>
    <trip id="75" depart="75.00" from="880" to="2209"/>
    <trip id="76" depart="76.00" from="-4539" to="1391"/>
    <trip id="77" depart="77.00" from="-1798" to="-2756"/>
    <trip id="78" depart="78.00" from="-365" to="1891"/>
    <trip id="79" depart="79.00" from="-2714" to="-2724"/>
    <trip id="80" depart="80.00" from="-1431" to="2185"/>
    <trip id="81" depart="81.00" from="-2714" to="496"/>
    <trip id="82" depart="82.00" from="3737" to="-1441"/>
    <trip id="83" depart="83.00" from="-2766" to="2425"/>
    <trip id="84" depart="84.00" from="-2453" to="-1930"/>
    <trip id="85" depart="85.00" from="589" to="1771"/>
    <trip id="86" depart="86.00" from="-597" to="3497"/>
    <trip id="87" depart="87.00" from="3162" to="-2421"/>
    <trip id="88" depart="88.00" from="-1532" to="-696"/>
    <trip id="89" depart="89.00" from="-4473" to="1027"/>
    <trip id="90" depart="90.00" from="2421" to="2449"/>
    <trip id="91" depart="91.00" from="837" to="-1535"/>
    <trip id="92" depart="92.00" from="-3920" to="-3773"/>
    <trip id="93" depart="93.00" from="3739" to="-3"/>
    <trip id="94" depart="94.00" from="-2210" to="-848"/>
    <trip id="95" depart="95.00" from="-4469" to="-326"/>
    <trip id="96" depart="96.00" from="-2895" to="579"/>
    <trip id="97" depart="97.00" from="-496" to="3897"/>
    <trip id="98" depart="98.00" from="1093" to="-1373"/>
    <trip id="99" depart="99.00" from="9" to="3800"/>
    <trip id="100" depart="100.00" from="684" to="585"/>
    <trip id="101" depart="101.00" from="3607" to="-2183"/>
    <trip id="102" depart="102.00" from="-621" to="-2502"/>
    <trip id="103" depart="103.00" from="-3907" to="-1404"/>
    <trip id="104" depart="104.00" from="-3814" to="846"/>
    <trip id="105" depart="105.00" from="-3093" to="349"/>
    <trip id="106" depart="106.00" from="-535" to="-642"/>
    <trip id="107" depart="107.00" from="639" to="880"/>
    <trip id="108" depart="108.00" from="116" to="2969"/>
    <trip id="109" depart="109.00" from="-2128" to="-3439"/>
    <trip id="110" depart="110.00" from="684" to="1797"/>
    <trip id="111" depart="111.00" from="1011" to="3159"/>
    <trip id="112" depart="112.00" from="-1391" to="1882"/>
    <trip id="113" depart="113.00" from="-684" to="3849"/>
    <trip id="114" depart="114.00" from="-2149" to="674"/>
    <trip id="115" depart="115.00" from="-1493" to="-2278"/>
    <trip id="116" depart="116.00" from="1391" to="2453"/>
    <trip id="117" depart="117.00" from="-2756" to="-1882"/>
    <trip id="118" depart="118.00" from="3801" to="-2979"/>
    <trip id="119" depart="119.00" from="1391" to="2158"/>
    <trip id="120" depart="120.00" from="-4258" to="1882"/>
    <trip id="121" depart="121.00" from="-840" to="601"/>
    <trip id="122" depart="122.00" from="-2423" to="2963"/>
    <trip id="123" depart="123.00" from="-2872" to="-588"/>
    <trip id="124" depart="124.00" from="1935" to="-344"/>
    <trip id="125" depart="125.00" from="-3439" to="3166"/>
    <trip id="126" depart="126.00" from="-1441" to="-882"/>
    <trip id="127" depart="127.00" from="9" to="880"/>
    <trip id="128" depart="128.00" from="-1447" to="-25"/>
    <trip id="129" depart="129.00" from="-3093" to="597"/>
    <trip id="130" depart="130.00" from="379" to="4258"/>
    <trip id="131" depart="131.00" from="-3799" to="-2166"/>
    <trip id="132" depart="132.00" from="3438" to="2873"/>
    <trip id="133" depart="133.00" from="1464" to="848"/>
    <trip id="134" depart="134.00" from="1797" to="-1033"/>
    <trip id="135" depart="135.00" from="326" to="-344"/>
    <trip id="136" depart="136.00" from="1891" to="612"/>
    <trip id="137" depart="137.00" from="-1930" to="-1797"/>
    <trip id="138" depart="138.00" from="-1769" to="1523"/>
    <trip id="139" depart="139.00" from="-3122" to="1950"/>
    <trip id="140" depart="140.00" from="2202" to="-2453"/>
    <trip id="141" depart="141.00" from="1532" to="-3137"/>
    <trip id="142" depart="142.00" from="-625" to="496"/>
    <trip id="143" depart="143.00" from="356" to="-1524"/>
    <trip id="144" depart="144.00" from="-4473" to="-3252"/>
    <trip id="145" depart="145.00" from="-1011" to="338"/>
    <trip id="146" depart="146.00" from="1535" to="-3131"/>
    <trip id="147" depart="147.00" from="2453" to="1517"/>
    <trip id="148" depart="148.00" from="-4494" to="-1057"/>
    <trip id="149" depart="149.00" from="-1464" to="4469"/>
    <trip id="150" depart="150.00" from="4258" to="1499"/>
    <trip id="151" depart="151.00" from="3438" to="1798"/>
    <trip id="152" depart="152.00" from="-2110" to="-19"/>
    <trip id="153" depart="153.00" from="-338" to="4539"/>
    <trip id="154" depart="154.00" from="3121" to="3897"/>
    <trip id="155" depart="155.00" from="4255" to="-2494"/>
    <trip id="156" depart="156.00" from="-2895" to="-1767"/>
    <trip id="157" depart="157.00" from="2961" to="4469"/>
    <trip id="158" depart="158.00" from="-4031" to="2158"/>
    <trip id="159" depart="159.00" from="-2128" to="589"/>
    <trip id="160" depart="160.00" from="3740" to="730"/>
    <trip id="161" depart="161.00" from="319" to="4467"/>
    <trip id="162" depart="162.00" from="-1201" to="3131"/>
    <trip id="163" depart="163.00" from="-361" to="592"/>
    <trip id="164" depart="164.00" from="3137" to="3920"/>
    <trip id="165" depart="165.00" from="319" to="-3145"/>
    <trip id="166" depart="166.00" from="3" to="-1773"/>
    <trip id="167" depart="167.00" from="3764" to="3885"/>
    <trip id="168" depart="168.00" from="-2494" to="3761"/>
    <trip id="169" depart="169.00" from="-577" to="-3497"/>
    <trip id="170" depart="170.00" from="3121" to="-2872"/>
    <trip id="171" depart="171.00" from="-1201" to="-2423"/>
    <trip id="172" depart="172.00" from="-3603" to="3920"/>
    <trip id="173" depart="173.00" from="679" to="-330"/>
    <trip id="174" depart="174.00" from="1767" to="-592"/>
    <trip id="175" depart="175.00" from="734" to="1447"/>
    <trip id="176" depart="176.00" from="597" to="-1783"/>
    <trip id="177" depart="177.00" from="696" to="-2201"/>
    <trip id="178" depart="178.00" from="650" to="-3145"/>
    <trip id="179" depart="179.00" from="-1771" to="-698"/>
    <trip id="180" depart="180.00" from="2412" to="-3611"/>
    <trip id="181" depart="181.00" from="1431" to="1363"/>
    <trip id="182" depart="182.00" from="-3835" to="1775"/>
    <trip id="183" depart="183.00" from="-2963" to="2893"/>
    <trip id="184" depart="184.00" from="-1005" to="585"/>
    <trip id="185" depart="185.00" from="-9" to="2979"/>
    <trip id="186" depart="186.00" from="2453" to="2439"/>
    <trip id="187" depart="187.00" from="-3779" to="-1441"/>
    <trip id="188" depart="188.00" from="1895" to="-3744"/>
    <trip id="189" depart="189.00" from="-3438" to="3835"/>
    <trip id="190" depart="190.00" from="2206" to="-348"/>
    <trip id="191" depart="191.00" from="-338" to="-613"/>
    <trip id="192" depart="192.00" from="-3920" to="-3438"/>
    <trip id="193" depart="193.00" from="-1895" to="-64"/>
    <trip id="194" depart="194.00" from="597" to="2477"/>
    <trip id="195" depart="195.00" from="4257" to="2128"/>
    <trip id="196" depart="196.00" from="-332" to="15"/>
    <trip id="197" depart="197.00" from="-1005" to="-336"/>
    <trip id="198" depart="198.00" from="-4495" to="1797"/>
    <trip id="199" depart="199.00" from="1797" to="1011"/>
    <trip id="200" depart="200.00" from="-492" to="-2502"/>
    <trip id="201" depart="201.00" from="-601" to="4681"/>
    <trip id="202" depart="202.00" from="3121" to="-2186"/>
    <trip id="203" depart="203.00" from="-15" to="1388"/>
    <trip id="204" depart="204.00" from="1532" to="-3769"/>
    <trip id="205" depart="205.00" from="330" to="3166"/>
    <trip id="206" depart="206.00" from="1935" to="-2756"/>
    <trip id="207" depart="207.00" from="-2300" to="-1201"/>
    <trip id="208" depart="208.00" from="-2881" to="11"/>
    <trip id="209" depart="209.00" from="3607" to="-1447"/>
    <trip id="210" depart="210.00" from="-4256" to="2183"/>
    <trip id="211" depart="211.00" from="-2289" to="2756"/>
    <trip id="212" depart="212.00" from="-642" to="-2963"/>
    <trip id="213" depart="213.00" from="1798" to="-1027"/>
    <trip id="214" depart="214.00" from="25" to="338"/>
    <trip id="215" depart="215.00" from="-1769" to="-674"/>
    <trip id="216" depart="216.00" from="-2194" to="650"/>
    <trip id="217" depart="217.00" from="-734" to="-1373"/>
    <trip id="218" depart="218.00" from="-2895" to="3837"/>
    <trip id="219" depart="219.00" from="-569" to="3719"/>
    <trip id="220" depart="220.00" from="1919" to="848"/>
    <trip id="221" depart="221.00" from="1391" to="625"/>
    <trip id="222" depart="222.00" from="381" to="2112"/>
    <trip id="223" depart="223.00" from="2206" to="1345"/>
    <trip id="224" depart="224.00" from="3435" to="15"/>
    <trip id="225" depart="225.00" from="4050" to="3151"/>
    <trip id="226" depart="226.00" from="-601" to="-3122"/>
    <trip id="227" depart="227.00" from="-2893" to="2194"/>
    <trip id="228" depart="228.00" from="2872" to="1404"/>
    <trip id="229" depart="229.00" from="1517" to="-325"/>
    <trip id="230" depart="230.00" from="-1483" to="-333"/>
    <trip id="231" depart="231.00" from="-3122" to="-3720"/>
    <trip id="232" depart="232.00" from="1005" to="-1942"/>
    <trip id="233" depart="233.00" from="-2724" to="2724"/>
    <trip id="234" depart="234.00" from="2185" to="-1427"/>
    <trip id="235" depart="235.00" from="-4031" to="1494"/>
    <trip id="236" depart="236.00" from="-4257" to="-2482"/>
    <trip id="237" depart="237.00" from="-4467" to="496"/>
    <trip id="238" depart="238.00" from="1357" to="2732"/>
    <trip id="239" depart="239.00" from="365" to="333"/>
    <trip id="240" depart="240.00" from="-3814" to="-1029"/>
    <trip id="241" depart="241.00" from="-3742" to="319"/>
    <trip id="242" depart="242.00" from="3611" to="639"/>
    <trip id="243" depart="243.00" from="-4258" to="3159"/>
    <trip id="244" depart="244.00" from="1029" to="1944"/>
    <trip id="245" depart="245.00" from="-2486" to="-2724"/>
    <trip id="246" depart="246.00" from="-4527" to="-125"/>
    <trip id="247" depart="247.00" from="-3639" to="2482"/>
    <trip id="248" depart="248.00" from="-4027" to="-2173"/>
    <trip id="249" depart="249.00" from="-589" to="-19"/>
    <trip id="250" depart="250.00" from="15" to="-123"/>
    <trip id="251" depart="251.00" from="-3853" to="17"/>
    <trip id="252" depart="252.00" from="-123" to="2201"/>
    <trip id="253" depart="253.00" from="-1935" to="1005"/>
    <trip id="254" depart="254.00" from="-1373" to="-523"/>
    <trip id="255" depart="255.00" from="-2449" to="-3740"/>
    <trip id="256" depart="256.00" from="2732" to="-523"/>
    <trip id="257" depart="257.00" from="2502" to="3799"/>
    <trip id="258" depart="258.00" from="-2961" to="-1499"/>
    <trip id="259" depart="259.00" from="-119" to="1483"/>
    <trip id="260" depart="260.00" from="9" to="-3800"/>
    <trip id="261" depart="261.00" from="1775" to="348"/>
    <trip id="262" depart="262.00" from="1775" to="325"/>
    <trip id="263" depart="263.00" from="614" to="-2447"/>
    <trip id="264" depart="264.00" from="-119" to="-2128"/>
    <trip id="265" depart="265.00" from="-1891" to="2439"/>
    <trip id="266" depart="266.00" from="121" to="-2714"/>
    <trip id="267" depart="267.00" from="2168" to="333"/>
    <trip id="268" depart="268.00" from="-2183" to="2006"/>
    <trip id="269" depart="269.00" from="2486" to="-1783"/>
    <trip id="270" depart="270.00" from="332" to="684"/>
    <trip id="271" depart="271.00" from="-1771" to="-121"/>
    <trip id="272" depart="272.00" from="-3437" to="2477"/>
    <trip id="273" depart="273.00" from="64" to="-589"/>
    <trip id="274" depart="274.00" from="2200" to="-1483"/>
    <trip id="275" depart="275.00" from="2128" to="2173"/>
    <trip id="276" depart="276.00" from="-1535" to="3435"/>
    <trip id="277" depart="277.00" from="361" to="1942"/>
    <trip id="278" depart="278.00" from="-1798" to="840"/>
    <trip id="279" depart="279.00" from="2963" to="-38"/>
    <trip id="280" depart="280.00" from="-4494" to="-4495"/>
    <trip id="281" depart="281.00" from="-696" to="-3779"/>
    <trip id="282" depart="282.00" from="3607" to="3772"/>
    <trip id="283" depart="283.00" from="-1767" to="674"/>
    <trip id="284" depart="284.00" from="1533" to="3787"/>
    <trip id="285" depart="285.00" from="2185" to="-7"/>
    <trip id="286" depart="286.00" from="2425" to="686"/>
    <trip id="287" depart="287.00" from="-3121" to="3739"/>
    <trip id="288" depart="288.00" from="-9" to="1199"/>
    <trip id="289" depart="289.00" from="-4527" to="3121"/>
    <trip id="290" depart="290.00" from="-3119" to="3847"/>
    <trip id="291" depart="291.00" from="3435" to="-1517"/>
    <trip id="292" depart="292.00" from="379" to="-2963"/>
    <trip id="293" depart="293.00" from="-585" to="2110"/>
    <trip id="294" depart="294.00" from="-3814" to="-123"/>
    <trip id="295" depart="295.00" from="361" to="-2206"/>
    <trip id="296" depart="296.00" from="-2449" to="3639"/>
    <trip id="297" depart="297.00" from="-3719" to="4258"/>
    <trip id="298" depart="298.00" from="2171" to="-3252"/>
    <trip id="299" depart="299.00" from="-1057" to="621"/>
    <trip id="300" depart="300.00" from="-15" to="2979"/>
    <trip id="301" depart="301.00" from="-625" to="326"/>
    <trip id="302" depart="302.00" from="2128" to="2202"/>
    <trip id="303" depart="303.00" from="-639" to="361"/>
    <trip id="304" depart="304.00" from="-1524" to="-2732"/>
    <trip id="305" depart="305.00" from="2128" to="-356"/>
    <trip id="306" depart="306.00" from="1345" to="1093"/>
    <trip id="307" depart="307.00" from="-876" to="-674"/>
    <trip id="308" depart="308.00" from="2482" to="-3761"/>
    <trip id="309" depart="309.00" from="2173" to="-3166"/>
    <trip id="310" depart="310.00" from="-2903" to="-1882"/>
    <trip id="311" depart="311.00" from="-2285" to="-1882"/>
    <trip id="312" depart="312.00" from="-882" to="332"/>
    <trip id="313" depart="313.00" from="-2206" to="-2607"/>
    <trip id="314" depart="314.00" from="-618" to="3091"/>
    <trip id="315" depart="315.00" from="728" to="1415"/>
    <trip id="316" depart="316.00" from="-3155" to="-17"/>
    <trip id="317" depart="317.00" from="-2285" to="-2872"/>
    <trip id="318" depart="318.00" from="-2200" to="-11"/>
    <trip id="319" depart="319.00" from="-880" to="-325"/>
    <trip id="320" depart="320.00" from="7" to="1523"/>
    <trip id="321" depart="321.00" from="2166" to="-1895"/>
    <trip id="322" depart="322.00" from="3744" to="125"/>
    <trip id="323" depart="323.00" from="3764" to="1774"/>
    <trip id="324" depart="324.00" from="-592" to="-732"/>
    <trip id="325" depart="325.00" from="-2202" to="-1373"/>
    <trip id="326" depart="326.00" from="601" to="116"/>
    <trip id="327" depart="327.00" from="3328" to="-597"/>
    <trip id="328" depart="328.00" from="-1447" to="2183"/>
    <trip id="329" depart="329.00" from="-138" to="-2112"/>
    <trip id="330" depart="330.00" from="1201" to="-349"/>
    <trip id="331" depart="331.00" from="876" to="-1798"/>
    <trip id="332" depart="332.00" from="2766" to="2006"/>
    <trip id="333" depart="333.00" from="3093" to="-2766"/>
    <trip id="334" depart="334.00" from="-840" to="-867"/>
    <trip id="335" depart="335.00" from="-496" to="3897"/>
    <trip id="336" depart="336.00" from="867" to="-3497"/>
    <trip id="337" depart="337.00" from="1499" to="2110"/>
    <trip id="338" depart="338.00" from="2449" to="621"/>
    <trip id="339" depart="339.00" from="-2439" to="-2494"/>
    <trip id="340" depart="340.00" from="1883" to="-2158"/>
    <trip id="341" depart="341.00" from="-2188" to="-1483"/>
    <trip id="342" depart="342.00" from="-1011" to="-867"/>
    <trip id="343" depart="343.00" from="1388" to="-3435"/>
    <trip id="344" depart="344.00" from="-2724" to="2881"/>
    <trip id="345" depart="345.00" from="2173" to="-876"/>
    <trip id="346" depart="346.00" from="2112" to="579"/>
    <trip id="347" depart="347.00" from="3" to="2171"/>
    <trip id="348" depart="348.00" from="1883" to="597"/>
    <trip id="349" depart="349.00" from="-4474" to="1499"/>
    <trip id="350" depart="350.00" from="1773" to="505"/>
    <trip id="351" depart="351.00" from="336" to="-1447"/>
    <trip id="352" depart="352.00" from="-2173" to="-356"/>
    <trip id="353" depart="353.00" from="2494" to="1769"/>
    <trip id="354" depart="354.00" from="-3166" to="-1891"/>
    <trip id="355" depart="355.00" from="2120" to="2766"/>
    <trip id="356" depart="356.00" from="608" to="1342"/>
    <trip id="357" depart="357.00" from="-64" to="-1494"/>
    <trip id="358" depart="358.00" from="-1342" to="-696"/>
    <trip id="359" depart="359.00" from="-349" to="-3091"/>
    <trip id="360" depart="360.00" from="-1523" to="679"/>
    <trip id="361" depart="361.00" from="3439" to="1775"/>
    <trip id="362" depart="362.00" from="618" to="9"/>
    <trip id="363" depart="363.00" from="1935" to="-3166"/>
    <trip id="364" depart="364.00" from="-1342" to="3252"/>
    <trip id="365" depart="365.00" from="-592" to="2210"/>
    <trip id="366" depart="366.00" from="517" to="-2206"/>
    <trip id="367" depart="367.00" from="1359" to="2188"/>
    <trip id="368" depart="368.00" from="-639" to="-1524"/>
    <trip id="369" depart="369.00" from="-3739" to="-3764"/>
    <trip id="370" depart="370.00" from="1930" to="3885"/>
    <trip id="371" depart="371.00" from="-3607" to="2724"/>
    <trip id="372" depart="372.00" from="-3162" to="618"/>
    <trip id="373" depart="373.00" from="3252" to="1517"/>
    <trip id="374" depart="374.00" from="-535" to="-3611"/>
    <trip id="375" depart="375.00" from="-3497" to="698"/>
    <trip id="376" depart="376.00" from="-4027" to="138"/>
    <trip id="377" depart="377.00" from="848" to="2289"/>
    <trip id="378" depart="378.00" from="1027" to="-618"/>
    <trip id="379" depart="379.00" from="-2209" to="-4256"/>
    <trip id="380" depart="380.00" from="2714" to="2171"/>
    <trip id="381" depart="381.00" from="2732" to="-2453"/>
    <trip id="382" depart="382.00" from="1057" to="588"/>
    <trip id="383" depart="383.00" from="-4539" to="2766"/>
    <trip id="384" depart="384.00" from="-1882" to="728"/>
    <trip id="385" depart="385.00" from="1441" to="-2903"/>
    <trip id="386" depart="386.00" from="-2158" to="1517"/>
    <trip id="387" depart="387.00" from="11" to="-1526"/>
    <trip id="388" depart="388.00" from="870" to="523"/>
    <trip id="389" depart="389.00" from="-577" to="-1798"/>
    <trip id="390" depart="390.00" from="3437" to="1323"/>
    <trip id="391" depart="391.00" from="2201" to="1359"/>
    <trip id="392" depart="392.00" from="-313" to="3800"/>
    <trip id="393" depart="393.00" from="732" to="-2963"/>
    <trip id="394" depart="394.00" from="1093" to="-535"/>
    <trip id="395" depart="395.00" from="535" to="1359"/>
    <trip id="396" depart="396.00" from="3779" to="3920"/>
    <trip id="397" depart="397.00" from="-3131" to="3603"/>
    <trip id="398" depart="398.00" from="-4256" to="597"/>
    <trip id="399" depart="399.00" from="-698" to="3769"/>
    <trip id="400" depart="400.00" from="-3155" to="-344"/>
    <trip id="401" depart="401.00" from="1363" to="9"/>
    <trip id="402" depart="402.00" from="-625" to="-2112"/>
    <trip id="403" depart="403.00" from="1005" to="-3799"/>
    <trip id="404" depart="404.00" from="1093" to="1494"/>
    <trip id="405" depart="405.00" from="-535" to="-3737"/>
    <trip id="406" depart="406.00" from="-2210" to="2756"/>
    <trip id="407" depart="407.00" from="128" to="-2881"/>
    <trip id="408" depart="408.00" from="2895" to="-1345"/>
    <trip id="409" depart="409.00" from="2482" to="2876"/>
    <trip id="410" depart="410.00" from="319" to="-569"/>
    <trip id="411" depart="411.00" from="1895" to="3769"/>
    <trip id="412" depart="412.00" from="734" to="128"/>
    <trip id="413" depart="413.00" from="-1323" to="1343"/>
    <trip id="414" depart="414.00" from="1373" to="4049"/>
    <trip id="415" depart="415.00" from="3769" to="-730"/>
    <trip id="416" depart="416.00" from="-848" to="-880"/>
    <trip id="417" depart="417.00" from="2210" to="-614"/>
    <trip id="418" depart="418.00" from="1797" to="-2149"/>
    <trip id="419" depart="419.00" from="-592" to="696"/>
    <trip id="420" depart="420.00" from="-3719" to="2724"/>
    <trip id="421" depart="421.00" from="1774" to="3847"/>
    <trip id="422" depart="422.00" from="3611" to="3885"/>
    <trip id="423" depart="423.00" from="-3814" to="-3639"/>
    <trip id="424" depart="424.00" from="2202" to="326"/>
    <trip id="425" depart="425.00" from="3764" to="-13"/>
    <trip id="426" depart="426.00" from="-1429" to="2185"/>
    <trip id="427" depart="427.00" from="533" to="882"/>
    <trip id="428" depart="428.00" from="2486" to="-698"/>
    <trip id="429" depart="429.00" from="-1533" to="2186"/>
    <trip id="430" depart="430.00" from="3764" to="-734"/>
    <trip id="431" depart="431.00" from="2149" to="492"/>
    <trip id="432" depart="432.00" from="-1357" to="3611"/>
    <trip id="433" depart="433.00" from="-325" to="-504"/>
    <trip id="434" depart="434.00" from="-2006" to="1431"/>
    <trip id="435" depart="435.00" from="123" to="361"/>
    <trip id="436" depart="436.00" from="-2185" to="-1494"/>
    <trip id="437" depart="437.00" from="3761" to="2158"/>
    <trip id="438" depart="438.00" from="-2873" to="523"/>
    <trip id="439" depart="439.00" from="-1950" to="-9"/>
    <trip id="440" depart="440.00" from="-2963" to="-3119"/>
    <trip id="441" depart="441.00" from="-1033" to="3734"/>
    <trip id="442" depart="442.00" from="4256" to="2477"/>
    <trip id="443" depart="443.00" from="-2158" to="-732"/>
    <trip id="444" depart="444.00" from="-3737" to="1891"/>
    <trip id="445" depart="445.00" from="17" to="-650"/>
    <trip id="446" depart="446.00" from="-2903" to="383"/>
    <trip id="447" depart="447.00" from="-2300" to="-569"/>
    <trip id="448" depart="448.00" from="-618" to="-2895"/>
    <trip id="449" depart="449.00" from="128" to="1774"/>
    <trip id="450" depart="450.00" from="876" to="-3438"/>
    <trip id="451" depart="451.00" from="730" to="2291"/>
    <trip id="452" depart="452.00" from="-313" to="1767"/>
    <trip id="453" depart="453.00" from="2110" to="3155"/>
    <trip id="454" depart="454.00" from="-1363" to="2006"/>
    <trip id="455" depart="455.00" from="-650" to="496"/>
    <trip id="456" depart="456.00" from="-3159" to="365"/>
    <trip id="457" depart="457.00" from="1431" to="-381"/>
    <trip id="458" depart="458.00" from="1535" to="2158"/>
    <trip id="459" depart="459.00" from="1944" to="2979"/>
    <trip id="460" depart="460.00" from="1882" to="3801"/>
    <trip id="461" depart="461.00" from="1523" to="492"/>
    <trip id="462" depart="462.00" from="1773" to="-3603"/>
    <trip id="463" depart="463.00" from="-492" to="1797"/>
    <trip id="464" depart="464.00" from="2423" to="-1523"/>
    <trip id="465" depart="465.00" from="-3252" to="3159"/>
    <trip id="466" depart="466.00" from="-2194" to="-1930"/>
    <trip id="467" depart="467.00" from="1005" to="7"/>
    <trip id="468" depart="468.00" from="-876" to="533"/>
    <trip id="469" depart="469.00" from="3435" to="-3121"/>
    <trip id="470" depart="470.00" from="333" to="119"/>
    <trip id="471" depart="471.00" from="3162" to="3159"/>
    <trip id="472" depart="472.00" from="-3719" to="-1783"/>
    <trip id="473" depart="473.00" from="650" to="-1950"/>
    <trip id="474" depart="474.00" from="679" to="3897"/>
    <trip id="475" depart="475.00" from="2278" to="734"/>
    <trip id="476" depart="476.00" from="679" to="3734"/>
    <trip id="477" depart="477.00" from="-3787" to="3607"/>
    <trip id="478" depart="478.00" from="-11" to="1464"/>
    <trip id="479" depart="479.00" from="-535" to="2447"/>
    <trip id="480" depart="480.00" from="1935" to="1882"/>
    <trip id="481" depart="481.00" from="3328" to="612"/>
    <trip id="482" depart="482.00" from="-1771" to="-2881"/>
    <trip id="483" depart="483.00" from="-121" to="4469"/>
    <trip id="484" depart="484.00" from="1199" to="533"/>
    <trip id="485" depart="485.00" from="-2494" to="-1425"/>
    <trip id="486" depart="486.00" from="333" to="505"/>
    <trip id="487" depart="487.00" from="-3328" to="-613"/>
    <trip id="488" depart="488.00" from="-1942" to="621"/>
    <trip id="489" depart="489.00" from="-333" to="126"/>
    <trip id="490" depart="490.00" from="-1532" to="4474"/>
    <trip id="491" depart="491.00" from="-1935" to="-870"/>
    <trip id="492" depart="492.00" from="1930" to="3151"/>
    <trip id="493" depart="493.00" from="612" to="-639"/>
    <trip id="494" depart="494.00" from="2453" to="-2149"/>
    <trip id="495" depart="495.00" from="-4256" to="-1535"/>
    <trip id="496" depart="496.00" from="-625" to="-613"/>
    <trip id="497" depart="497.00" from="618" to="-128"/>
    <trip id="498" depart="498.00" from="-3799" to="-734"/>
    <trip id="499" depart="499.00" from="618" to="3853"/>
    <trip id="500" depart="500.00" from="-1533" to="25"/>
    <trip id="501" depart="501.00" from="1029" to="732"/>