<?xml version="1.0" encoding="UTF-8"?>

<!-- generated on 2024-04-03 17:21:51.693099 by randomTrips.py UNKNOWN
<configuration>
    <net-file value="/Users/cianmurphy/code_directories/sumo-routing/reformat/sim_files/net_001.net.xml"/>
    <random value="True"/>
    <end value="100.0"/>
    <period value="0.1"/>
</configuration>
-->

<routes xmlns:xsi="http://www.w3.org/2001/XMLSchema-instance" xsi:noNamespaceSchemaLocation="http://sumo.dlr.de/xsd/routes_file.xsd">
    <trip id="0" depart="0.00" from="-597" to="-3739"/>
    <trip id="1" depart="0.10" from="2006" to="3439"/>
    <trip id="2" depart="0.20" from="-579" to="1532"/>
    <trip id="3" depart="0.30" from="-210" to="-1501"/>
    <trip id="4" depart="0.40" from="-383" to="-880"/>
    <trip id="5" depart="0.50" from="-1771" to="608"/>
    <trip id="6" depart="0.60" from="3769" to="1441"/>
    <trip id="7" depart="0.70" from="876" to="-2158"/>
    <trip id="8" depart="0.80" from="-533" to="-1775"/>
    <trip id="9" depart="0.90" from="-11" to="3119"/>
    <trip id="10" depart="1.00" from="569" to="535"/>
    <trip id="11" depart="1.10" from="-3739" to="-2185"/>
    <trip id="12" depart="1.20" from="730" to="-119"/>
    <trip id="13" depart="1.30" from="2112" to="-383"/>
    <trip id="14" depart="1.40" from="523" to="698"/>
    <trip id="15" depart="1.50" from="-15" to="639"/>
    <trip id="16" depart="1.60" from="-3761" to="-117"/>
    <trip id="17" depart="1.70" from="1464" to="-3166"/>
    <trip id="18" depart="1.80" from="365" to="569"/>
    <trip id="19" depart="1.90" from="1501" to="1029"/>
    <trip id="20" depart="2.00" from="-1895" to="-2961"/>
    <trip id="21" depart="2.10" from="-126" to="-3611"/>
    <trip id="22" depart="2.20" from="-569" to="3328"/>
    <trip id="23" depart="2.30" from="-1532" to="1950"/>
    <trip id="24" depart="2.40" from="-505" to="2201"/>
    <trip id="25" depart="2.50" from="3800" to="592"/>
    <trip id="26" depart="2.60" from="2477" to="3761"/>
    <trip id="27" depart="2.70" from="-3719" to="-3121"/>
    <trip id="28" depart="2.80" from="597" to="-734"/>
    <trip id="29" depart="2.90" from="-1391" to="2412"/>
    <trip id="30" depart="3.00" from="-3883" to="-1357"/>
    <trip id="31" depart="3.10" from="-3907" to="3121"/>
    <trip id="32" depart="3.20" from="-348" to="3639"/>
    <trip id="33" depart="3.30" from="-3438" to="17"/>
    <trip id="34" depart="3.40" from="-1427" to="4495"/>
    <trip id="35" depart="3.50" from="-1483" to="1895"/>
    <trip id="36" depart="3.60" from="-2766" to="4050"/>
    <trip id="37" depart="3.70" from="-2494" to="2979"/>
    <trip id="38" depart="3.80" from="-1391" to="840"/>
    <trip id="39" depart="3.90" from="1027" to="2502"/>
    <trip id="40" depart="4.00" from="-2300" to="2166"/>
    <trip id="41" depart="4.10" from="-336" to="612"/>
    <trip id="42" depart="4.20" from="-1425" to="25"/>
    <trip id="43" depart="4.30" from="1944" to="2210"/>
    <trip id="44" depart="4.40" from="1798" to="696"/>
    <trip id="45" depart="4.50" from="-4469" to="1027"/>
    <trip id="46" depart="4.60" from="-1524" to="-2439"/>
    <trip id="47" depart="4.70" from="-1895" to="3787"/>
    <trip id="48" depart="4.80" from="-3737" to="-126"/>
    <trip id="49" depart="4.90" from="3740" to="2449"/>
    <trip id="50" depart="5.00" from="1797" to="3131"/>
    <trip id="51" depart="5.10" from="-3761" to="2453"/>
    <trip id="52" depart="5.20" from="3439" to="-2714"/>
    <trip id="53" depart="5.30" from="1011" to="3773"/>
    <trip id="54" depart="5.40" from="348" to="-1363"/>
    <trip id="55" depart="5.50" from="-1441" to="3093"/>
    <trip id="56" depart="5.60" from="4258" to="-117"/>
    <trip id="57" depart="5.70" from="2185" to="-523"/>
    <trip id="58" depart="5.80" from="-1533" to="684"/>
    <trip id="59" depart="5.90" from="2963" to="-2149"/>
    <trip id="60" depart="6.00" from="569" to="588"/>
    <trip id="61" depart="6.10" from="3093" to="1517"/>
    <trip id="62" depart="6.20" from="1447" to="319"/>
    <trip id="63" depart="6.30" from="2194" to="1388"/>
    <trip id="64" depart="6.40" from="-123" to="1535"/>
    <trip id="65" depart="6.50" from="2502" to="-3801"/>
    <trip id="66" depart="6.60" from="1883" to="2881"/>
    <trip id="67" depart="6.70" from="3737" to="119"/>
    <trip id="68" depart="6.80" from="1774" to="-2494"/>
    <trip id="69" depart="6.90" from="2477" to="-3093"/>
    <trip id="70" depart="7.00" from="-2188" to="4495"/>
    <trip id="71" depart="7.10" from="3720" to="1944"/>
    <trip id="72" depart="7.20" from="2482" to="-639"/>
    <trip id="73" depart="7.30" from="3121" to="-3761"/>
    <trip id="74" depart="7.40" from="3611" to="-2482"/>
    <trip id="75" depart="7.50" from="344" to="2278"/>
    <trip id="76" depart="7.60" from="-19" to="2961"/>
    <trip id="77" depart="7.70" from="2186" to="3151"/>
    <trip id="78" depart="7.80" from="1027" to="2963"/>
    <trip id="79" depart="7.90" from="1388" to="2895"/>
    <trip id="80" depart="8.00" from="-13" to="25"/>
    <trip id="81" depart="8.10" from="-2502" to="2477"/>
    <trip id="82" depart="8.20" from="1033" to="3439"/>
    <trip id="83" depart="8.30" from="1517" to="1944"/>
    <trip id="84" depart="8.40" from="-123" to="2171"/>
    <trip id="85" depart="8.50" from="1499" to="870"/>
    <trip id="86" depart="8.60" from="1441" to="2300"/>
    <trip id="87" depart="8.70" from="-1773" to="-1524"/>
    <trip id="88" depart="8.80" from="-2425" to="1882"/>
    <trip id="89" depart="8.90" from="-3739" to="-123"/>
    <trip id="90" depart="9.00" from="-119" to="4258"/>
    <trip id="91" depart="9.10" from="-618" to="-2607"/>
    <trip id="92" depart="9.20" from="-3853" to="-1882"/>
    <trip id="93" depart="9.30" from="-2186" to="381"/>
    <trip id="94" depart="9.40" from="-319" to="-696"/>
    <trip id="95" depart="9.50" from="-2158" to="2168"/>
    <trip id="96" depart="9.60" from="-1524" to="-1431"/>
    <trip id="97" depart="9.70" from="504" to="-1027"/>
    <trip id="98" depart="9.80" from="523" to="-3166"/>
    <trip id="99" depart="9.90" from="-38" to="-882"/>
    <trip id="100" depart="10.00" from="2120" to="3799"/>
    <trip id="101" depart="10.10" from="-1343" to="-3800"/>
    <trip id="102" depart="10.20" from="-2198" to="-1057"/>
    <trip id="103" depart="10.30" from="3799" to="-1447"/>
    <trip id="104" depart="10.40" from="2873" to="-3122"/>
    <trip id="105" depart="10.50" from="25" to="-618"/>
    <trip id="106" depart="10.60" from="319" to="17"/>
    <trip id="107" depart="10.70" from="-1499" to="-19"/>
    <trip id="108" depart="10.80" from="344" to="-1532"/>
    <trip id="109" depart="10.90" from="-3122" to="588"/>
    <trip id="110" depart="11.00" from="3439" to="7"/>
    <trip id="111" depart="11.10" from="1919" to="-1517"/>
    <trip id="112" depart="11.20" from="-650" to="3837"/>
    <trip id="113" depart="11.30" from="-2961" to="-882"/>
    <trip id="114" depart="11.40" from="-2188" to="-338"/>
    <trip id="115" depart="11.50" from="-336" to="-734"/>
    <trip id="116" depart="11.60" from="-2421" to="-3607"/>
    <trip id="117" depart="11.70" from="-1427" to="2876"/>
    <trip id="118" depart="11.80" from="2185" to="3744"/>
    <trip id="119" depart="11.90" from="-2714" to="-3779"/>
    <trip id="120" depart="12.00" from="-2173" to="3734"/>
    <trip id="121" depart="12.10" from="1441" to="-1199"/>
    <trip id="122" depart="12.20" from="1523" to="650"/>
    <trip id="123" depart="12.30" from="-1775" to="1532"/>
    <trip id="124" depart="12.40" from="1941" to="-2969"/>
    <trip id="125" depart="12.50" from="-535" to="-2185"/>
    <trip id="126" depart="12.60" from="848" to="3800"/>
    <trip id="127" depart="12.70" from="-840" to="7"/>
    <trip id="128" depart="12.80" from="1425" to="1201"/>
    <trip id="129" depart="12.90" from="614" to="1441"/>
    <trip id="130" depart="13.00" from="3740" to="1011"/>
    <trip id="131" depart="13.10" from="730" to="-1391"/>
    <trip id="132" depart="13.20" from="3119" to="325"/>
    <trip id="133" depart="13.30" from="-4467" to="3849"/>
    <trip id="134" depart="13.40" from="4495" to="-2202"/>
    <trip id="135" depart="13.50" from="-333" to="-679"/>
    <trip id="136" depart="13.60" from="-608" to="3607"/>
    <trip id="137" depart="13.70" from="319" to="1523"/>
    <trip id="138" depart="13.80" from="-365" to="3151"/>
    <trip id="139" depart="13.90" from="-1441" to="-618"/>
    <trip id="140" depart="14.00" from="336" to="-19"/>
    <trip id="141" depart="14.10" from="2166" to="1427"/>
    <trip id="142" depart="14.20" from="533" to="2873"/>
    <trip id="143" depart="14.30" from="-1775" to="-2171"/>
    <trip id="144" depart="14.40" from="1883" to="-2439"/>
    <trip id="145" depart="14.50" from="730" to="356"/>
    <trip id="146" depart="14.60" from="1501" to="-2183"/>
    <trip id="147" depart="14.70" from="-2873" to="-2447"/>
    <trip id="148" depart="14.80" from="-1429" to="2477"/>
    <trip id="149" depart="14.90" from="1425" to="3885"/>
    <trip id="150" depart="15.00" from="-3801" to="2477"/>
    <trip id="151" depart="15.10" from="732" to="4539"/>
    <trip id="152" depart="15.20" from="-492" to="-2168"/>
    <trip id="153" depart="15.30" from="4050" to="-2421"/>
    <trip id="154" depart="15.40" from="138" to="2198"/>
    <trip id="155" depart="15.50" from="-344" to="3145"/>
    <trip id="156" depart="15.60" from="4258" to="-4257"/>
    <trip id="157" depart="15.70" from="-614" to="3438"/>
    <trip id="158" depart="15.80" from="880" to="597"/>
    <trip id="159" depart="15.90" from="2412" to="-4474"/>
    <trip id="160" depart="16.00" from="1499" to="3162"/>
    <trip id="161" depart="16.10" from="-1357" to="-589"/>
    <trip id="162" depart="16.20" from="330" to="138"/>
    <trip id="163" depart="16.30" from="579" to="-2425"/>
    <trip id="164" depart="16.40" from="-3497" to="-642"/>
    <trip id="165" depart="16.50" from="1011" to="-696"/>
    <trip id="166" depart="16.60" from="-338" to="-330"/>
    <trip id="167" depart="16.70" from="-4527" to="-625"/>
    <trip id="168" depart="16.80" from="2439" to="2186"/>
    <trip id="169" depart="16.90" from="2201" to="4256"/>
    <trip id="170" depart="17.00" from="570" to="1447"/>
    <trip id="171" depart="17.10" from="-496" to="492"/>
    <trip id="172" depart="17.20" from="1771" to="3907"/>
    <trip id="173" depart="17.30" from="3720" to="2872"/>
    <trip id="174" depart="17.40" from="679" to="-3131"/>
    <trip id="175" depart="17.50" from="-19" to="2903"/>
    <trip id="176" depart="17.60" from="3121" to="2876"/>
    <trip id="177" depart="17.70" from="319" to="1199"/>
    <trip id="178" depart="17.80" from="1343" to="-365"/>
    <trip id="179" depart="17.90" from="3162" to="1533"/>
    <trip id="180" depart="18.00" from="-2423" to="-210"/>
    <trip id="181" depart="18.10" from="-344" to="-601"/>
    <trip id="182" depart="18.20" from="336" to="588"/>
    <trip id="183" depart="18.30" from="2486" to="-1345"/>
    <trip id="184" depart="18.40" from="-1429" to="-121"/>
    <trip id="185" depart="18.50" from="684" to="867"/>
    <trip id="186" depart="18.60" from="2903" to="1057"/>
    <trip id="187" depart="18.70" from="-3769" to="1429"/>
    <trip id="188" depart="18.80" from="-2202" to="623"/>
    <trip id="189" depart="18.90" from="336" to="-2210"/>
    <trip id="190" depart="19.00" from="1429" to="2494"/>
    <trip id="191" depart="19.10" from="-4467" to="-2486"/>
    <trip id="192" depart="19.20" from="-570" to="-4257"/>
    <trip id="193" depart="19.30" from="1535" to="-1771"/>
    <trip id="194" depart="19.40" from="1895" to="-1771"/>
    <trip id="195" depart="19.50" from="2278" to="1464"/>
    <trip id="196" depart="19.60" from="-2423" to="-379"/>
    <trip id="197" depart="19.70" from="3328" to="1345"/>
    <trip id="198" depart="19.80" from="1429" to="3744"/>
    <trip id="199" depart="19.90" from="-880" to="2756"/>
    <trip id="200" depart="20.00" from="3744" to="-2185"/>
    <trip id="201" depart="20.10" from="-1935" to="-2110"/>
    <trip id="202" depart="20.20" from="569" to="-3607"/>
    <trip id="203" depart="20.30" from="-2209" to="880"/>
    <trip id="204" depart="20.40" from="-880" to="25"/>
    <trip id="205" depart="20.50" from="848" to="-2714"/>
    <trip id="206" depart="20.60" from="2421" to="-2423"/>
    <trip id="207" depart="20.70" from="3639" to="1774"/>
    <trip id="208" depart="20.80" from="-2893" to="-1345"/>
    <trip id="209" depart="20.90" from="-2876" to="-846"/>
    <trip id="210" depart="21.00" from="1783" to="880"/>
    <trip id="211" depart="21.10" from="1057" to="4257"/>
    <trip id="212" depart="21.20" from="-2903" to="121"/>
    <trip id="213" depart="21.30" from="-597" to="-313"/>
    <trip id="214" depart="21.40" from="-2206" to="-505"/>
    <trip id="215" depart="21.50" from="-2756" to="-333"/>
    <trip id="216" depart="21.60" from="-2120" to="-3773"/>
    <trip id="217" depart="21.70" from="-344" to="870"/>
    <trip id="218" depart="21.80" from="1774" to="3769"/>
    <trip id="219" depart="21.90" from="-1027" to="3883"/>
    <trip id="220" depart="22.00" from="1950" to="1941"/>
    <trip id="221" depart="22.10" from="-2732" to="-2110"/>
    <trip id="222" depart="22.20" from="-1345" to="2198"/>
    <trip id="223" depart="22.30" from="-3438" to="1493"/>
    <trip id="224" depart="22.40" from="1769" to="1526"/>
    <trip id="225" depart="22.50" from="-2158" to="612"/>
    <trip id="226" depart="22.60" from="1357" to="336"/>
    <trip id="227" depart="22.70" from="1533" to="-585"/>
    <trip id="228" depart="22.80" from="2453" to="-3145"/>
    <trip id="229" depart="22.90" from="-326" to="3787"/>
    <trip id="230" depart="23.00" from="-3764" to="882"/>
    <trip id="231" depart="23.10" from="3131" to="-614"/>
    <trip id="232" depart="23.20" from="-1774" to="3737"/>
    <trip id="233" depart="23.30" from="-4258" to="333"/>
    <trip id="234" depart="23.40" from="-3" to="3761"/>
    <trip id="235" depart="23.50" from="3907" to="3734"/>
    <trip id="236" depart="23.60" from="383" to="-2732"/>
    <trip id="237" depart="23.70" from="-3639" to="4258"/>
    <trip id="238" depart="23.80" from="-3814" to="-728"/>
    <trip id="239" depart="23.90" from="-383" to="-3435"/>
    <trip id="240" depart="24.00" from="-1526" to="-876"/>
    <trip id="241" depart="24.10" from="-2200" to="-2881"/>
    <trip id="242" depart="24.20" from="1783" to="-2423"/>
    <trip id="243" depart="24.30" from="-3761" to="-1891"/>
    <trip id="244" depart="24.40" from="-3801" to="-3438"/>
    <trip id="245" depart="24.50" from="-3091" to="-1501"/>
    <trip id="246" depart="24.60" from="1057" to="-1891"/>
    <trip id="247" depart="24.70" from="-38" to="-3603"/>
    <trip id="248" depart="24.80" from="356" to="344"/>
    <trip id="249" depart="24.90" from="-650" to="-116"/>
    <trip id="250" depart="25.00" from="-3091" to="3740"/>
    <trip id="251" depart="25.10" from="-38" to="15"/>
    <trip id="252" depart="25.20" from="-621" to="-1517"/>
    <trip id="253" depart="25.30" from="-1501" to="3155"/>
    <trip id="254" depart="25.40" from="-3837" to="679"/>
    <trip id="255" depart="25.50" from="379" to="-2423"/>
    <trip id="256" depart="25.60" from="-128" to="-313"/>
    <trip id="257" depart="25.70" from="-608" to="-38"/>
    <trip id="258" depart="25.80" from="2876" to="-1797"/>
    <trip id="259" depart="25.90" from="3497" to="1769"/>
    <trip id="260" depart="26.00" from="-1415" to="1363"/>
    <trip id="261" depart="26.10" from="3607" to="2210"/>
    <trip id="262" depart="26.20" from="-2412" to="-1388"/>
    <trip id="263" depart="26.30" from="2173" to="-2714"/>
    <trip id="264" depart="26.40" from="210" to="-1345"/>
    <trip id="265" depart="26.50" from="2477" to="601"/>
    <trip id="266" depart="26.60" from="2903" to="-2439"/>
    <trip id="267" depart="26.70" from="-3119" to="613"/>
    <trip id="268" depart="26.80" from="2200" to="-2963"/>
    <trip id="269" depart="26.90" from="-2149" to="882"/>
    <trip id="270" depart="27.00" from="1388" to="3761"/>
    <trip id="271" depart="27.10" from="2766" to="-2149"/>
    <trip id="272" depart="27.20" from="-13" to="-9"/>
    <trip id="273" depart="27.30" from="-1425" to="13"/>
    <trip id="274" depart="27.40" from="1345" to="116"/>
    <trip id="275" depart="27.50" from="-2421" to="-1388"/>
    <trip id="276" depart="27.60" from="-3799" to="-1029"/>
    <trip id="277" depart="27.70" from="2149" to="2423"/>
    <trip id="278" depart="27.80" from="-3121" to="882"/>
    <trip id="279" depart="27.90" from="-4494" to="25"/>
    <trip id="280" depart="28.00" from="2423" to="505"/>
    <trip id="281" depart="28.10" from="-579" to="1342"/>
    <trip id="282" depart="28.20" from="-4467" to="1404"/>
    <trip id="283" depart="28.30" from="-2477" to="313"/>
    <trip id="284" depart="28.40" from="732" to="-1532"/>
    <trip id="285" depart="28.50" from="734" to="333"/>
    <trip id="286" depart="28.60" from="-523" to="-3438"/>
    <trip id="287" depart="28.70" from="-621" to="2168"/>
    <trip id="288" depart="28.80" from="-3835" to="3159"/>
    <trip id="289" depart="28.90" from="3607" to="-1441"/>
    <trip id="290" depart="29.00" from="4257" to="517"/>
    <trip id="291" depart="29.10" from="-3849" to="-336"/>
    <trip id="292" depart="29.20" from="2202" to="1388"/>
    <trip id="293" depart="29.30" from="2903" to="1447"/>
    <trip id="294" depart="29.40" from="-1771" to="3835"/>
    <trip id="295" depart="29.50" from="2206" to="-492"/>
    <trip id="296" depart="29.60" from="-1029" to="-13"/>
    <trip id="297" depart="29.70" from="3761" to="-344"/>
    <trip id="298" depart="29.80" from="-3849" to="-2166"/>
    <trip id="299" depart="29.90" from="3773" to="1535"/>
    <trip id="300" depart="30.00" from="-4255" to="1093"/>
    <trip id="301" depart="30.10" from="-1357" to="1415"/>
    <trip id="302" depart="30.20" from="-4256" to="319"/>
    <trip id="303" depart="30.30" from="-3439" to="1359"/>
    <trip id="304" depart="30.40" from="1199" to="2173"/>
    <trip id="305" depart="30.50" from="-64" to="361"/>
    <trip id="306" depart="30.60" from="-126" to="-1941"/>
    <trip id="307" depart="30.70" from="121" to="-730"/>
    <trip id="308" depart="30.80" from="356" to="325"/>
    <trip id="309" depart="30.90" from="1895" to="3639"/>
    <trip id="310" depart="31.00" from="-623" to="-535"/>
    <trip id="311" depart="31.10" from="-4255" to="1404"/>
    <trip id="312" depart="31.20" from="-4031" to="613"/>
    <trip id="313" depart="31.30" from="-3" to="-2714"/>
    <trip id="314" depart="31.40" from="2201" to="-2128"/>
    <trip id="315" depart="31.50" from="2423" to="2158"/>
    <trip id="316" depart="31.60" from="-1201" to="383"/>
    <trip id="317" depart="31.70" from="126" to="-3720"/>
    <trip id="318" depart="31.80" from="3166" to="-1775"/>
    <trip id="319" depart="31.90" from="2006" to="3779"/>
    <trip id="320" depart="32.00" from="-492" to="2881"/>
    <trip id="321" depart="32.10" from="128" to="-3739"/>
    <trip id="322" depart="32.20" from="-867" to="3737"/>
    <trip id="323" depart="32.30" from="2732" to="313"/>
    <trip id="324" depart="32.40" from="-330" to="1431"/>
    <trip id="325" depart="32.50" from="2289" to="-336"/>
    <trip id="326" depart="32.60" from="-2766" to="-623"/>
    <trip id="327" depart="32.70" from="577" to="-2453"/>
    <trip id="328" depart="32.80" from="-25" to="-728"/>
    <trip id="329" depart="32.90" from="2895" to="-3119"/>
    <trip id="330" depart="33.00" from="-1199" to="-344"/>
    <trip id="331" depart="33.10" from="-19" to="-2278"/>
    <trip id="332" depart="33.20" from="9" to="3837"/>
    <trip id="333" depart="33.30" from="2185" to="-1201"/>
    <trip id="334" depart="33.40" from="3435" to="642"/>
    <trip id="335" depart="33.50" from="-121" to="-870"/>
    <trip id="336" depart="33.60" from="-2963" to="698"/>
    <trip id="337" depart="33.70" from="2963" to="-1429"/>
    <trip id="338" depart="33.80" from="-2006" to="-4258"/>
    <trip id="339" depart="33.90" from="-1388" to="-1883"/>
    <trip id="340" depart="34.00" from="4495" to="313"/>
    <trip id="341" depart="34.10" from="-2186" to="3761"/>
    <trip id="342" depart="34.20" from="623" to="-1882"/>
    <trip id="343" depart="34.30" from="-1427" to="588"/>
    <trip id="344" depart="34.40" from="3091" to="-3328"/>
    <trip id="345" depart="34.50" from="-3742" to="-1774"/>
    <trip id="346" depart="34.60" from="-348" to="-2873"/>
    <trip id="347" depart="34.70" from="3119" to="1775"/>
    <trip id="348" depart="34.80" from="505" to="-1767"/>
    <trip id="349" depart="34.90" from="4495" to="-325"/>
    <trip id="350" depart="35.00" from="-3772" to="840"/>
    <trip id="351" depart="35.10" from="613" to="-612"/>
    <trip id="352" depart="35.20" from="13" to="848"/>
    <trip id="353" depart="35.30" from="-116" to="-338"/>
    <trip id="354" depart="35.40" from="-613" to="-734"/>
    <trip id="355" depart="35.50" from="13" to="1005"/>
    <trip id="356" depart="35.60" from="-569" to="2112"/>
    <trip id="357" depart="35.70" from="-3719" to="-3497"/>
    <trip id="358" depart="35.80" from="348" to="-625"/>
    <trip id="359" depart="35.90" from="2486" to="3162"/>
    <trip id="360" depart="36.00" from="-2206" to="1775"/>
    <trip id="361" depart="36.10" from="-19" to="-1930"/>
    <trip id="362" depart="36.20" from="-128" to="1797"/>
    <trip id="363" depart="36.30" from="-2171" to="1532"/>
    <trip id="364" depart="36.40" from="-2183" to="-4050"/>
    <trip id="365" depart="36.50" from="-3773" to="1425"/>
    <trip id="366" depart="36.60" from="837" to="-1447"/>
    <trip id="367" depart="36.70" from="1526" to="1027"/>
    <trip id="368" depart="36.80" from="-3166" to="-2120"/>
    <trip id="369" depart="36.90" from="-332" to="2168"/>
    <trip id="370" depart="37.00" from="-2421" to="4539"/>
    <trip id="371" depart="37.10" from="-592" to="-333"/>
    <trip id="372" depart="37.20" from="2494" to="383"/>
    <trip id="373" depart="37.30" from="3799" to="3137"/>
    <trip id="374" depart="37.40" from="-592" to="3920"/>
    <trip id="375" depart="37.50" from="-2872" to="1429"/>
    <trip id="376" depart="37.60" from="679" to="348"/>
    <trip id="377" depart="37.70" from="2201" to="336"/>
    <trip id="378" depart="37.80" from="3607" to="1526"/>
    <trip id="379" depart="37.90" from="116" to="1935"/>
    <trip id="380" depart="38.00" from="2447" to="1359"/>
    <trip id="381" depart="38.10" from="-2895" to="1499"/>
    <trip id="382" depart="38.20" from="-1033" to="-2903"/>
    <trip id="383" depart="38.30" from="-1882" to="-3639"/>
    <trip id="384" depart="38.40" from="-1883" to="-2006"/>
    <trip id="385" depart="38.50" from="-1201" to="-2185"/>
    <trip id="386" depart="38.60" from="3162" to="1769"/>
    <trip id="387" depart="38.70" from="-1431" to="4258"/>
    <trip id="388" depart="38.80" from="3720" to="-3328"/>
    <trip id="389" depart="38.90" from="3744" to="-38"/>
    <trip id="390" depart="39.00" from="126" to="-1404"/>
    <trip id="391" depart="39.10" from="1783" to="1093"/>
    <trip id="392" depart="39.20" from="3737" to="-1431"/>
    <trip id="393" depart="39.30" from="-2421" to="1388"/>
    <trip id="394" depart="39.40" from="13" to="-1771"/>
    <trip id="395" depart="39.50" from="-2289" to="-2714"/>
    <trip id="396" depart="39.60" from="732" to="-2607"/>
    <trip id="397" depart="39.70" from="123" to="613"/>
    <trip id="398" depart="39.80" from="-570" to="3435"/>
    <trip id="399" depart="39.90" from="-2486" to="-2482"/>
    <trip id="400" depart="40.00" from="533" to="-2439"/>
    <trip id="401" depart="40.10" from="-333" to="1363"/>
    <trip id="402" depart="40.20" from="2732" to="3166"/>
    <trip id="403" depart="40.30" from="3131" to="1404"/>
    <trip id="404" depart="40.40" from="-2200" to="2893"/>
    <trip id="405" depart="40.50" from="880" to="2873"/>
    <trip id="406" depart="40.60" from="2961" to="381"/>
    <trip id="407" depart="40.70" from="-379" to="3435"/>
    <trip id="408" depart="40.80" from="-2477" to="2502"/>
    <trip id="409" depart="40.90" from="880" to="577"/>
    <trip id="410" depart="41.00" from="585" to="2194"/>
    <trip id="411" depart="41.10" from="-579" to="2110"/>
    <trip id="412" depart="41.20" from="-2421" to="3897"/>
    <trip id="413" depart="41.30" from="361" to="-1771"/>
    <trip id="414" depart="41.40" from="1343" to="-2210"/>
    <trip id="415" depart="41.50" from="2876" to="-4255"/>
    <trip id="416" depart="41.60" from="-3800" to="-326"/>
    <trip id="417" depart="41.70" from="3252" to="1930"/>
    <trip id="418" depart="41.80" from="-1057" to="-569"/>
    <trip id="419" depart="41.90" from="-3739" to="4501"/>
    <trip id="420" depart="42.00" from="3764" to="-696"/>
    <trip id="421" depart="42.10" from="2183" to="-2289"/>
    <trip id="422" depart="42.20" from="-585" to="1199"/>
    <trip id="423" depart="42.30" from="3739" to="608"/>
    <trip id="424" depart="42.40" from="1783" to="-3"/>
    <trip id="425" depart="42.50" from="-2300" to="3093"/>
    <trip id="426" depart="42.60" from="-1533" to="-3764"/>
    <trip id="427" depart="42.70" from="3122" to="2112"/>
    <trip id="428" depart="42.80" from="3744" to="1944"/>
    <trip id="429" depart="42.90" from="-3121" to="4258"/>
    <trip id="430" depart="43.00" from="-1464" to="-589"/>
    <trip id="431" depart="43.10" from="1029" to="1783"/>
    <trip id="432" depart="43.20" from="-3772" to="-1526"/>
    <trip id="433" depart="43.30" from="9" to="-3328"/>
    <trip id="434" depart="43.40" from="2607" to="-1935"/>
    <trip id="435" depart="43.50" from="-2449" to="1535"/>
    <trip id="436" depart="43.60" from="3166" to="-1532"/>
    <trip id="437" depart="43.70" from="2766" to="-1342"/>
    <trip id="438" depart="43.80" from="-2300" to="3800"/>
    <trip id="439" depart="43.90" from="679" to="3779"/>
    <trip id="440" depart="44.00" from="-117" to="1499"/>
    <trip id="441" depart="44.10" from="-3742" to="-1944"/>
    <trip id="442" depart="44.20" from="-1447" to="-880"/>
    <trip id="443" depart="44.30" from="3737" to="4473"/>
    <trip id="444" depart="44.40" from="-2289" to="1359"/>
    <trip id="445" depart="44.50" from="-867" to="728"/>
    <trip id="446" depart="44.60" from="-3603" to="679"/>
    <trip id="447" depart="44.70" from="589" to="625"/>
    <trip id="448" depart="44.80" from="2185" to="-1517"/>
    <trip id="449" depart="44.90" from="-383" to="1373"/>
    <trip id="450" depart="45.00" from="-3744" to="-642"/>
    <trip id="451" depart="45.10" from="4258" to="17"/>
    <trip id="452" depart="45.20" from="-3438" to="1494"/>
    <trip id="453" depart="45.30" from="3437" to="125"/>
    <trip id="454" depart="45.40" from="-319" to="-3607"/>
    <trip id="455" depart="45.50" from="1415" to="4469"/>
    <trip id="456" depart="45.60" from="-2183" to="1773"/>
    <trip id="457" depart="45.70" from="-2447" to="535"/>
    <trip id="458" depart="45.80" from="-1533" to="3764"/>
    <trip id="459" depart="45.90" from="588" to="-592"/>
    <trip id="460" depart="46.00" from="3907" to="1773"/>
    <trip id="461" depart="46.10" from="2186" to="846"/>
    <trip id="462" depart="46.20" from="876" to="-642"/>
    <trip id="463" depart="46.30" from="-1499" to="1532"/>
    <trip id="464" depart="46.40" from="-597" to="2006"/>
    <trip id="465" depart="46.50" from="-125" to="2482"/>
    <trip id="466" depart="46.60" from="642" to="613"/>
    <trip id="467" depart="46.70" from="-3847" to="1523"/>
    <trip id="468" depart="46.80" from="-3122" to="-3438"/>
    <trip id="469" depart="46.90" from="116" to="-1532"/>
    <trip id="470" depart="47.00" from="-1005" to="121"/>
    <trip id="471" depart="47.10" from="-2198" to="3439"/>
    <trip id="472" depart="47.20" from="4495" to="3742"/>
    <trip id="473" depart="47.30" from="-621" to="379"/>
    <trip id="474" depart="47.40" from="592" to="-3779"/>
    <trip id="475" depart="47.50" from="-612" to="1033"/>
    <trip id="476" depart="47.60" from="-621" to="-121"/>
    <trip id="477" depart="47.70" from="-1345" to="-1526"/>
    <trip id="478" depart="47.80" from="1373" to="-2453"/>
    <trip id="479" depart="47.90" from="-570" to="-585"/>
    <trip id="480" depart="48.00" from="-3119" to="3853"/>
    <trip id="481" depart="48.10" from="3122" to="-3122"/>
    <trip id="482" depart="48.20" from="2961" to="-11"/>
    <trip id="483" depart="48.30" from="492" to="-585"/>
    <trip id="484" depart="48.40" from="579" to="-313"/>
    <trip id="485" depart="48.50" from="-1447" to="-383"/>
    <trip id="486" depart="48.60" from="-4027" to="-116"/>
    <trip id="487" depart="48.70" from="4050" to="-4257"/>
    <trip id="488" depart="48.80" from="1919" to="-1464"/>
    <trip id="489" depart="48.90" from="3093" to="-882"/>
    <trip id="490" depart="49.00" from="-4474" to="128"/>
    <trip id="491" depart="49.10" from="-1464" to="1342"/>
    <trip id="492" depart="49.20" from="-3787" to="-1523"/>
    <trip id="493" depart="49.30" from="2756" to="-1441"/>
    <trip id="494" depart="49.40" from="3761" to="-1425"/>
    <trip id="495" depart="49.50" from="1535" to="-4256"/>
    <trip id="496" depart="49.60" from="3772" to="4255"/>
    <trip id="497" depart="49.70" from="1523" to="-734"/>
    <trip id="498" depart="49.80" from="2412" to="1532"/>
    <trip id="499" depart="49.90" from="-3095" to="3166"/>
    <trip id="500" depart="50.00" from="344" to="-623"/>
    <trip id="501" depart="50.10" from="-3159" to="-3772"/>
    <trip id="502" depart="50.20" from="-1919" to="-119"/>
    <trip id="503" depart="50.30" from="-2872" to="338"/>
    <trip id="504" depart="50.40" from="-3742" to="365"/>
    <trip id="505" depart="50.50" from="-2185" to="2006"/>
    <trip id="506" depart="50.60" from="696" to="1011"/>
    <trip id="507" depart="50.70" from="-2171" to="-618"/>
    <trip id="508" depart="50.80" from="-4495" to="4505"/>
    <trip id="509" depart="50.90" from="138" to="-3801"/>