<?xml version="1.0" encoding="UTF-8"?>

<!-- generated on 2024-03-27 14:52:40.862445 by randomTrips.py UNKNOWN
<configuration>
    <net-file value="/Users/cianmurphy/code_directories/sumo-routing/reformat/sim_files/net_001.net.xml"/>
    <random value="True"/>
    <end value="500.0"/>
    <period value="0.25"/>
</configuration>
-->

<routes xmlns:xsi="http://www.w3.org/2001/XMLSchema-instance" xsi:noNamespaceSchemaLocation="http://sumo.dlr.de/xsd/routes_file.xsd">
    <trip id="0" depart="0.00" from="-1930" to="-882"/>
    <trip id="1" depart="0.25" from="1199" to="361"/>
    <trip id="2" depart="0.50" from="3252" to="2278"/>
    <trip id="3" depart="0.75" from="-1441" to="3497"/>
    <trip id="4" depart="1.00" from="-333" to="2893"/>
    <trip id="5" depart="1.25" from="1057" to="-2186"/>
    <trip id="6" depart="1.50" from="-2477" to="-1935"/>
    <trip id="7" depart="1.75" from="-3740" to="-2881"/>
    <trip id="8" depart="2.00" from="-1029" to="-2289"/>
    <trip id="9" depart="2.25" from="-3639" to="-138"/>
    <trip id="10" depart="2.50" from="-128" to="1425"/>
    <trip id="11" depart="2.75" from="505" to="618"/>
    <trip id="12" depart="3.00" from="-2183" to="-2173"/>
    <trip id="13" depart="3.25" from="-4495" to="-837"/>
    <trip id="14" depart="3.50" from="2149" to="-361"/>
    <trip id="15" depart="3.75" from="-1429" to="1404"/>
    <trip id="16" depart="4.00" from="1011" to="-2872"/>
    <trip id="17" depart="4.25" from="365" to="-601"/>
    <trip id="18" depart="4.50" from="3720" to="1533"/>
    <trip id="19" depart="4.75" from="3611" to="-1093"/>
    <trip id="20" depart="5.00" from="-19" to="1201"/>
    <trip id="21" depart="5.25" from="-2477" to="1499"/>
    <trip id="22" depart="5.50" from="614" to="1523"/>
    <trip id="23" depart="5.75" from="-1441" to="-1882"/>
    <trip id="24" depart="6.00" from="-119" to="-1883"/>
    <trip id="25" depart="6.25" from="2607" to="2477"/>
    <trip id="26" depart="6.50" from="2453" to="2895"/>
    <trip id="27" depart="6.75" from="589" to="-2876"/>
    <trip id="28" depart="7.00" from="-3885" to="-1771"/>
    <trip id="29" depart="7.25" from="684" to="679"/>
    <trip id="30" depart="7.50" from="570" to="597"/>
    <trip id="31" depart="7.75" from="882" to="1373"/>
    <trip id="32" depart="8.00" from="2893" to="2714"/>
    <trip id="33" depart="8.25" from="-2893" to="3734"/>
    <trip id="34" depart="8.50" from="19" to="3497"/>
    <trip id="35" depart="8.75" from="-1464" to="-2423"/>
    <trip id="36" depart="9.00" from="-505" to="-1363"/>
    <trip id="37" depart="9.25" from="870" to="1526"/>
    <trip id="38" depart="9.50" from="3761" to="2168"/>
    <trip id="39" depart="9.75" from="-3837" to="-728"/>
    <trip id="40" depart="10.00" from="-4256" to="1415"/>
    <trip id="41" depart="10.25" from="684" to="-3739"/>
    <trip id="42" depart="10.50" from="-336" to="15"/>
    <trip id="43" depart="10.75" from="-4474" to="3764"/>
    <trip id="44" depart="11.00" from="-1464" to="3611"/>
    <trip id="45" depart="11.25" from="623" to="-3607"/>
    <trip id="46" depart="11.50" from="2425" to="3907"/>
    <trip id="47" depart="11.75" from="601" to="2149"/>
    <trip id="48" depart="12.00" from="-2285" to="730"/>
    <trip id="49" depart="12.25" from="-1950" to="332"/>
    <trip id="50" depart="12.50" from="-2200" to="116"/>
    <trip id="51" depart="12.75" from="-1941" to="-381"/>
    <trip id="52" depart="13.00" from="-2278" to="3744"/>
    <trip id="53" depart="13.25" from="-597" to="1773"/>
    <trip id="54" depart="13.50" from="517" to="-1501"/>
    <trip id="55" depart="13.75" from="-3437" to="1882"/>
    <trip id="56" depart="14.00" from="2183" to="588"/>
    <trip id="57" depart="14.25" from="11" to="2278"/>
    <trip id="58" depart="14.50" from="1323" to="625"/>
    <trip id="59" depart="14.75" from="-4469" to="-1773"/>
    <trip id="60" depart="15.00" from="1199" to="650"/>
    <trip id="61" depart="15.25" from="2185" to="-3779"/>
    <trip id="62" depart="15.50" from="1774" to="-3131"/>
    <trip id="63" depart="15.75" from="-623" to="-2502"/>
    <trip id="64" depart="16.00" from="-846" to="2158"/>
    <trip id="65" depart="16.25" from="-2421" to="-613"/>
    <trip id="66" depart="16.50" from="-2168" to="3093"/>
    <trip id="67" depart="16.75" from="4257" to="4258"/>
    <trip id="68" depart="17.00" from="-3801" to="1769"/>
    <trip id="69" depart="17.25" from="-1441" to="326"/>
    <trip id="70" depart="17.50" from="-614" to="1783"/>
    <trip id="71" depart="17.75" from="597" to="870"/>
    <trip id="72" depart="18.00" from="1526" to="-1771"/>
    <trip id="73" depart="18.25" from="4257" to="-1535"/>
    <trip id="74" depart="18.50" from="-3847" to="210"/>
    <trip id="75" depart="18.75" from="2439" to="2714"/>
    <trip id="76" depart="19.00" from="2714" to="-880"/>
    <trip id="77" depart="19.25" from="1342" to="3801"/>
    <trip id="78" depart="19.50" from="1523" to="4049"/>
    <trip id="79" depart="19.75" from="-3739" to="-123"/>
    <trip id="80" depart="20.00" from="2893" to="618"/>
    <trip id="81" depart="20.25" from="125" to="2006"/>
    <trip id="82" depart="20.50" from="-1427" to="-3437"/>
    <trip id="83" depart="20.75" from="383" to="-1771"/>
    <trip id="84" depart="21.00" from="-4681" to="2766"/>
    <trip id="85" depart="21.25" from="-650" to="-1950"/>
    <trip id="86" depart="21.50" from="-614" to="-2502"/>
    <trip id="87" depart="21.75" from="-3438" to="125"/>
    <trip id="88" depart="22.00" from="3121" to="15"/>
    <trip id="89" depart="22.25" from="326" to="592"/>
    <trip id="90" depart="22.50" from="11" to="585"/>
    <trip id="91" depart="22.75" from="882" to="319"/>
    <trip id="92" depart="23.00" from="-3779" to="2872"/>
    <trip id="93" depart="23.25" from="-117" to="592"/>
    <trip id="94" depart="23.50" from="332" to="330"/>
    <trip id="95" depart="23.75" from="3800" to="612"/>
    <trip id="96" depart="24.00" from="1883" to="3437"/>
    <trip id="97" depart="24.25" from="679" to="577"/>
    <trip id="98" depart="24.50" from="-38" to="2453"/>
    <trip id="99" depart="24.75" from="1404" to="-1494"/>
    <trip id="100" depart="25.00" from="2439" to="15"/>
    <trip id="101" depart="25.25" from="-2202" to="517"/>
    <trip id="102" depart="25.50" from="3166" to="2173"/>
    <trip id="103" depart="25.75" from="880" to="3439"/>
    <trip id="104" depart="26.00" from="-1773" to="-882"/>
    <trip id="105" depart="26.25" from="-1011" to="-2893"/>
    <trip id="106" depart="26.50" from="612" to="2766"/>
    <trip id="107" depart="26.75" from="349" to="-2449"/>
    <trip id="108" depart="27.00" from="3639" to="2876"/>
    <trip id="109" depart="27.25" from="2494" to="-2289"/>
    <trip id="110" depart="27.50" from="-7" to="-2893"/>
    <trip id="111" depart="27.75" from="2188" to="-2502"/>
    <trip id="112" depart="28.00" from="-639" to="-1526"/>
    <trip id="113" depart="28.25" from="535" to="1345"/>
    <trip id="114" depart="28.50" from="-4474" to="3734"/>
    <trip id="115" depart="28.75" from="-3159" to="1499"/>
    <trip id="116" depart="29.00" from="-3799" to="2449"/>
    <trip id="117" depart="29.25" from="-2502" to="-3439"/>
    <trip id="118" depart="29.50" from="-1771" to="-344"/>
    <trip id="119" depart="29.75" from="4258" to="-1005"/>
    <trip id="120" depart="30.00" from="-1201" to="2412"/>
    <trip id="121" depart="30.25" from="-3814" to="3814"/>
    <trip id="122" depart="30.50" from="-674" to="-577"/>
    <trip id="123" depart="30.75" from="732" to="492"/>
    <trip id="124" depart="31.00" from="-625" to="3119"/>
    <trip id="125" depart="31.25" from="-4031" to="-625"/>
    <trip id="126" depart="31.50" from="-3497" to="-2183"/>
    <trip id="127" depart="31.75" from="3801" to="3847"/>
    <trip id="128" depart="32.00" from="-2969" to="3883"/>
    <trip id="129" depart="32.25" from="-579" to="-4256"/>
    <trip id="130" depart="32.50" from="-3847" to="-3121"/>
    <trip id="131" depart="32.75" from="623" to="-2876"/>
    <trip id="132" depart="33.00" from="492" to="-1415"/>
    <trip id="133" depart="33.25" from="-2300" to="210"/>
    <trip id="134" depart="33.50" from="-1033" to="3119"/>
    <trip id="135" depart="33.75" from="344" to="1429"/>
    <trip id="136" depart="34.00" from="588" to="-684"/>
    <trip id="137" depart="34.25" from="-1535" to="-674"/>
    <trip id="138" depart="34.50" from="-686" to="-349"/>
    <trip id="139" depart="34.75" from="3639" to="3787"/>
    <trip id="140" depart="35.00" from="-3121" to="-698"/>
    <trip id="141" depart="35.25" from="-1029" to="3719"/>
    <trip id="142" depart="35.50" from="-2412" to="-2425"/>
    <trip id="143" depart="35.75" from="19" to="-325"/>
    <trip id="144" depart="36.00" from="1057" to="-3801"/>
    <trip id="145" depart="36.25" from="2120" to="3800"/>
    <trip id="146" depart="36.50" from="517" to="3119"/>
    <trip id="147" depart="36.75" from="2149" to="3091"/>
    <trip id="148" depart="37.00" from="-1941" to="4027"/>
    <trip id="149" depart="37.25" from="-383" to="-3166"/>
    <trip id="150" depart="37.50" from="-1431" to="3740"/>
    <trip id="151" depart="37.75" from="338" to="19"/>
    <trip id="152" depart="38.00" from="3720" to="3639"/>
    <trip id="153" depart="38.25" from="-2149" to="2724"/>
    <trip id="154" depart="38.50" from="3438" to="2289"/>
    <trip id="155" depart="38.75" from="1005" to="2732"/>
    <trip id="156" depart="39.00" from="325" to="-1517"/>
    <trip id="157" depart="39.25" from="698" to="-1493"/>
    <trip id="158" depart="39.50" from="2893" to="2963"/>
    <trip id="159" depart="39.75" from="1464" to="-2166"/>
    <trip id="160" depart="40.00" from="-1359" to="210"/>
    <trip id="161" depart="40.25" from="2278" to="3435"/>
    <trip id="162" depart="40.50" from="2173" to="569"/>
    <trip id="163" depart="40.75" from="3742" to="492"/>
    <trip id="164" depart="41.00" from="1427" to="-3328"/>
    <trip id="165" depart="41.25" from="379" to="642"/>
    <trip id="166" depart="41.50" from="-3438" to="3159"/>
    <trip id="167" depart="41.75" from="-2186" to="-1769"/>
    <trip id="168" depart="42.00" from="-618" to="2198"/>
    <trip id="169" depart="42.25" from="-138" to="-1363"/>
    <trip id="170" depart="42.50" from="1431" to="1093"/>
    <trip id="171" depart="42.75" from="734" to="3091"/>
    <trip id="172" depart="43.00" from="-3837" to="-3121"/>
    <trip id="173" depart="43.25" from="612" to="-1533"/>
    <trip id="174" depart="43.50" from="-4539" to="-1033"/>
    <trip id="175" depart="43.75" from="-2439" to="3435"/>
    <trip id="176" depart="44.00" from="2194" to="-117"/>
    <trip id="177" depart="44.25" from="-4031" to="1935"/>
    <trip id="178" depart="44.50" from="-25" to="126"/>
    <trip id="179" depart="44.75" from="-3328" to="-505"/>
    <trip id="180" depart="45.00" from="2173" to="-2876"/>
    <trip id="181" depart="45.25" from="-2486" to="-25"/>
    <trip id="182" depart="45.50" from="2128" to="-2893"/>
    <trip id="183" depart="45.75" from="3119" to="3772"/>
    <trip id="184" depart="46.00" from="-1895" to="1769"/>
    <trip id="185" depart="46.25" from="3122" to="-356"/>
    <trip id="186" depart="46.50" from="3" to="3162"/>
    <trip id="187" depart="46.75" from="-1404" to="-1057"/>
    <trip id="188" depart="47.00" from="3800" to="2607"/>
    <trip id="189" depart="47.25" from="-1373" to="-1783"/>
    <trip id="190" depart="47.50" from="589" to="3252"/>
    <trip id="191" depart="47.75" from="592" to="-1057"/>
    <trip id="192" depart="48.00" from="2200" to="1533"/>
    <trip id="193" depart="48.25" from="-2724" to="-9"/>
    <trip id="194" depart="48.50" from="-1517" to="-2903"/>
    <trip id="195" depart="48.75" from="-4469" to="2963"/>
    <trip id="196" depart="49.00" from="-2756" to="1535"/>
    <trip id="197" depart="49.25" from="-9" to="-1323"/>
    <trip id="198" depart="49.50" from="-11" to="-732"/>
    <trip id="199" depart="49.75" from="728" to="3639"/>
    <trip id="200" depart="50.00" from="-1005" to="1447"/>
    <trip id="201" depart="50.25" from="-2969" to="-1357"/>
    <trip id="202" depart="50.50" from="-11" to="-728"/>
    <trip id="203" depart="50.75" from="3801" to="-336"/>
    <trip id="204" depart="51.00" from="-13" to="3825"/>
    <trip id="205" depart="51.25" from="-2714" to="313"/>
    <trip id="206" depart="51.50" from="-1427" to="3764"/>
    <trip id="207" depart="51.75" from="1919" to="2963"/>
    <trip id="208" depart="52.00" from="2412" to="-1345"/>
    <trip id="209" depart="52.25" from="-2872" to="-349"/>
    <trip id="210" depart="52.50" from="1011" to="-2979"/>
    <trip id="211" depart="52.75" from="-732" to="2607"/>
    <trip id="212" depart="53.00" from="2449" to="1357"/>
    <trip id="213" depart="53.25" from="-4527" to="2300"/>
    <trip id="214" depart="53.50" from="1919" to="-1517"/>
    <trip id="215" depart="53.75" from="-4469" to="19"/>
    <trip id="216" depart="54.00" from="-3131" to="-1388"/>
    <trip id="217" depart="54.25" from="2482" to="-1501"/>
    <trip id="218" depart="54.50" from="1391" to="4027"/>
    <trip id="219" depart="54.75" from="-4027" to="-3740"/>
    <trip id="220" depart="55.00" from="2006" to="837"/>
    <trip id="221" depart="55.25" from="3801" to="3853"/>
    <trip id="222" depart="55.50" from="-4257" to="3835"/>
    <trip id="223" depart="55.75" from="3720" to="-11"/>
    <trip id="224" depart="56.00" from="-4681" to="3734"/>
    <trip id="225" depart="56.25" from="1388" to="3825"/>
    <trip id="226" depart="56.50" from="3769" to="-2961"/>
    <trip id="227" depart="56.75" from="618" to="2149"/>
    <trip id="228" depart="57.00" from="1798" to="1532"/>
    <trip id="229" depart="57.25" from="128" to="734"/>
    <trip id="230" depart="57.50" from="3742" to="-138"/>
    <trip id="231" depart="57.75" from="-3095" to="4256"/>
    <trip id="232" depart="58.00" from="585" to="-1919"/>
    <trip id="233" depart="58.25" from="-1532" to="613"/>
    <trip id="234" depart="58.50" from="-533" to="3779"/>
    <trip id="235" depart="58.75" from="-1005" to="-1769"/>
    <trip id="236" depart="59.00" from="-2961" to="2120"/>
    <trip id="237" depart="59.25" from="-535" to="-2439"/>
    <trip id="238" depart="59.50" from="1895" to="-1464"/>
    <trip id="239" depart="59.75" from="608" to="867"/>
    <trip id="240" depart="60.00" from="505" to="-1523"/>
    <trip id="241" depart="60.25" from="-650" to="-1093"/>
    <trip id="242" depart="60.50" from="-15" to="-2421"/>
    <trip id="243" depart="60.75" from="344" to="4494"/>
    <trip id="244" depart="61.00" from="1199" to="-3122"/>
    <trip id="245" depart="61.25" from="-589" to="4031"/>
    <trip id="246" depart="61.50" from="2120" to="3497"/>
    <trip id="247" depart="61.75" from="-1027" to="-1005"/>
    <trip id="248" depart="62.00" from="-3740" to="2724"/>
    <trip id="249" depart="62.25" from="1517" to="-2201"/>
    <trip id="250" depart="62.50" from="-2724" to="-3497"/>
    <trip id="251" depart="62.75" from="121" to="-1425"/>
    <trip id="252" depart="63.00" from="138" to="-618"/>
    <trip id="253" depart="63.25" from="-2291" to="2607"/>
    <trip id="254" depart="63.50" from="-4501" to="-1526"/>
    <trip id="255" depart="63.75" from="-1883" to="-504"/>
    <trip id="256" depart="64.00" from="116" to="1935"/>
    <trip id="257" depart="64.25" from="1494" to="1363"/>
    <trip id="258" depart="64.50" from="-3145" to="3122"/>
    <trip id="259" depart="64.75" from="2724" to="1388"/>
    <trip id="260" depart="65.00" from="1373" to="613"/>
    <trip id="261" depart="65.25" from="-2120" to="-650"/>
    <trip id="262" depart="65.50" from="2194" to="-3761"/>
    <trip id="263" depart="65.75" from="-2449" to="1783"/>
    <trip id="264" depart="66.00" from="2006" to="840"/>
    <trip id="265" depart="66.25" from="-1343" to="730"/>
    <trip id="266" depart="66.50" from="2112" to="-1011"/>
    <trip id="267" depart="66.75" from="728" to="2149"/>
    <trip id="268" depart="67.00" from="-332" to="679"/>
    <trip id="269" depart="67.25" from="-1404" to="1464"/>
    <trip id="270" depart="67.50" from="3800" to="2724"/>
    <trip id="271" depart="67.75" from="1941" to="625"/>
    <trip id="272" depart="68.00" from="383" to="-19"/>
    <trip id="273" depart="68.25" from="325" to="3151"/>
    <trip id="274" depart="68.50" from="577" to="870"/>
    <trip id="275" depart="68.75" from="-867" to="-3121"/>
    <trip id="276" depart="69.00" from="-608" to="1425"/>
    <trip id="277" depart="69.25" from="1345" to="3773"/>
    <trip id="278" depart="69.50" from="1919" to="-3800"/>
    <trip id="279" depart="69.75" from="3737" to="15"/>
    <trip id="280" depart="70.00" from="-505" to="837"/>
    <trip id="281" depart="70.25" from="-2149" to="-2482"/>
    <trip id="282" depart="70.50" from="-880" to="3835"/>
    <trip id="283" depart="70.75" from="-848" to="-1767"/>
    <trip id="284" depart="71.00" from="330" to="-2766"/>
    <trip id="285" depart="71.25" from="-1797" to="1944"/>
    <trip id="286" depart="71.50" from="-1769" to="-3740"/>
    <trip id="287" depart="71.75" from="-2171" to="-2128"/>
    <trip id="288" depart="72.00" from="-639" to="3119"/>
    <trip id="289" depart="72.25" from="-2423" to="381"/>
    <trip id="290" depart="72.50" from="7" to="-3091"/>
    <trip id="291" depart="72.75" from="1950" to="-1767"/>
    <trip id="292" depart="73.00" from="13" to="-25"/>
    <trip id="293" depart="73.25" from="2149" to="1027"/>
    <trip id="294" depart="73.50" from="-2285" to="-1524"/>
    <trip id="295" depart="73.75" from="-64" to="-1494"/>
    <trip id="296" depart="74.00" from="1427" to="2198"/>
    <trip id="297" depart="74.25" from="138" to="2412"/>
    <trip id="298" depart="74.50" from="-3162" to="-1895"/>
    <trip id="299" depart="74.75" from="2449" to="-2128"/>
    <trip id="300" depart="75.00" from="625" to="-119"/>
    <trip id="301" depart="75.25" from="-4256" to="-1431"/>
    <trip id="302" depart="75.50" from="319" to="2194"/>
    <trip id="303" depart="75.75" from="1798" to="-3611"/>
    <trip id="304" depart="76.00" from="-2285" to="1425"/>
    <trip id="305" depart="76.25" from="867" to="1919"/>
    <trip id="306" depart="76.50" from="3162" to="349"/>
    <trip id="307" depart="76.75" from="-592" to="-730"/>
    <trip id="308" depart="77.00" from="3611" to="1783"/>
    <trip id="309" depart="77.25" from="-2903" to="1415"/>
    <trip id="310" depart="77.50" from="-1535" to="-2110"/>
    <trip id="311" depart="77.75" from="601" to="123"/>
    <trip id="312" depart="78.00" from="2979" to="-876"/>
    <trip id="313" depart="78.25" from="-349" to="-2006"/>
    <trip id="314" depart="78.50" from="-3769" to="-1891"/>
    <trip id="315" depart="78.75" from="349" to="2194"/>
    <trip id="316" depart="79.00" from="1501" to="-356"/>
    <trip id="317" depart="79.25" from="3438" to="-4050"/>
    <trip id="318" depart="79.50" from="2961" to="-3742"/>
    <trip id="319" depart="79.75" from="-2756" to="1773"/>
    <trip id="320" depart="80.00" from="1093" to="1388"/>
    <trip id="321" depart="80.25" from="876" to="-1771"/>
    <trip id="322" depart="80.50" from="-1427" to="-379"/>
    <trip id="323" depart="80.75" from="2200" to="-3607"/>
    <trip id="324" depart="81.00" from="-2285" to="-2873"/>
    <trip id="325" depart="81.25" from="19" to="1391"/>
    <trip id="326" depart="81.50" from="-3252" to="1464"/>
    <trip id="327" depart="81.75" from="-642" to="-1783"/>
    <trip id="328" depart="82.00" from="333" to="2482"/>
    <trip id="329" depart="82.25" from="-4050" to="-123"/>
    <trip id="330" depart="82.50" from="3761" to="-533"/>
    <trip id="331" depart="82.75" from="-3837" to="1919"/>
    <trip id="332" depart="83.00" from="-621" to="383"/>
    <trip id="333" depart="83.25" from="-848" to="-2961"/>
    <trip id="334" depart="83.50" from="-2453" to="-1447"/>
    <trip id="335" depart="83.75" from="-577" to="-123"/>
    <trip id="336" depart="84.00" from="126" to="1373"/>
    <trip id="337" depart="84.25" from="4255" to="-837"/>
    <trip id="338" depart="84.50" from="-613" to="-535"/>
    <trip id="339" depart="84.75" from="-1093" to="326"/>
    <trip id="340" depart="85.00" from="-4501" to="3438"/>
    <trip id="341" depart="85.25" from="-2732" to="612"/>
    <trip id="342" depart="85.50" from="-569" to="-1930"/>
    <trip id="343" depart="85.75" from="-1429" to="210"/>
    <trip id="344" depart="86.00" from="-1359" to="-696"/>
    <trip id="345" depart="86.25" from="2173" to="592"/>
    <trip id="346" depart="86.50" from="-326" to="2876"/>
    <trip id="347" depart="86.75" from="1783" to="-2477"/>
    <trip id="348" depart="87.00" from="-1415" to="2112"/>
    <trip id="349" depart="87.25" from="-882" to="1404"/>
    <trip id="350" depart="87.50" from="-2477" to="-876"/>
    <trip id="351" depart="87.75" from="1775" to="1427"/>
    <trip id="352" depart="88.00" from="-3734" to="517"/>
    <trip id="353" depart="88.25" from="-589" to="-880"/>
    <trip id="354" depart="88.50" from="-1057" to="-7"/>
    <trip id="355" depart="88.75" from="1427" to="1427"/>
    <trip id="356" depart="89.00" from="-3131" to="333"/>
    <trip id="357" depart="89.25" from="2210" to="1769"/>
    <trip id="358" depart="89.50" from="3801" to="4257"/>
    <trip id="359" depart="89.75" from="-125" to="-1526"/>
    <trip id="360" depart="90.00" from="-2876" to="-1431"/>
    <trip id="361" depart="90.25" from="679" to="2903"/>
    <trip id="362" depart="90.50" from="3720" to="-1323"/>
    <trip id="363" depart="90.75" from="3252" to="2447"/>
    <trip id="364" depart="91.00" from="-348" to="1057"/>
    <trip id="365" depart="91.25" from="1930" to="-7"/>
    <trip id="366" depart="91.50" from="1882" to="3849"/>
    <trip id="367" depart="91.75" from="-1944" to="2969"/>
    <trip id="368" depart="92.00" from="3779" to="-1526"/>
    <trip id="369" depart="92.25" from="1201" to="-880"/>
    <trip id="370" depart="92.50" from="-1532" to="-1483"/>
    <trip id="371" depart="92.75" from="585" to="614"/>
    <trip id="372" depart="93.00" from="535" to="-319"/>
    <trip id="373" depart="93.25" from="3607" to="-2494"/>
    <trip id="374" depart="93.50" from="4474" to="-3603"/>
    <trip id="375" depart="93.75" from="-1483" to="3121"/>
    <trip id="376" depart="94.00" from="-698" to="-732"/>
    <trip id="377" depart="94.25" from="38" to="870"/>
    <trip id="378" depart="94.50" from="-3764" to="-1797"/>
    <trip id="379" depart="94.75" from="-623" to="-3252"/>
    <trip id="380" depart="95.00" from="2423" to="-589"/>
    <trip id="381" depart="95.25" from="-533" to="-517"/>
    <trip id="382" depart="95.50" from="-876" to="1033"/>
    <trip id="383" depart="95.75" from="344" to="732"/>
    <trip id="384" depart="96.00" from="2607" to="-3639"/>
    <trip id="385" depart="96.25" from="1523" to="-1493"/>
    <trip id="386" depart="96.50" from="-1774" to="-2872"/>
    <trip id="387" depart="96.75" from="639" to="-1775"/>
    <trip id="388" depart="97.00" from="-696" to="1363"/>
    <trip id="389" depart="97.25" from="-3155" to="-1057"/>
    <trip id="390" depart="97.50" from="639" to="1774"/>
    <trip id="391" depart="97.75" from="870" to="4539"/>
    <trip id="392" depart="98.00" from="-1359" to="3603"/>
    <trip id="393" depart="98.25" from="-1919" to="3131"/>
    <trip id="394" depart="98.50" from="734" to="2186"/>
    <trip id="395" depart="98.75" from="623" to="1391"/>
    <trip id="396" depart="99.00" from="-3800" to="2200"/>
    <trip id="397" depart="99.25" from="2171" to="1447"/>
    <trip id="398" depart="99.50" from="-523" to="3"/>
    <trip id="399" depart="99.75" from="-728" to="-1431"/>
    <trip id="400" depart="100.00" from="3162" to="-1533"/>
    <trip id="401" depart="100.25" from="-4681" to="-1342"/>
    <trip id="402" depart="100.50" from="-608" to="698"/>
    <trip id="403" depart="100.75" from="1769" to="-1895"/>
    <trip id="404" depart="101.00" from="116" to="-2439"/>
    <trip id="405" depart="101.25" from="1783" to="2194"/>
    <trip id="406" depart="101.50" from="-1027" to="3847"/>
    <trip id="407" depart="101.75" from="-579" to="325"/>
    <trip id="408" depart="102.00" from="-1895" to="1343"/>
    <trip id="409" depart="102.25" from="523" to="1011"/>
    <trip id="410" depart="102.50" from="1767" to="-123"/>
    <trip id="411" depart="102.75" from="-1199" to="-1429"/>
    <trip id="412" depart="103.00" from="1524" to="-3137"/>
    <trip id="413" depart="103.25" from="-2285" to="128"/>
    <trip id="414" depart="103.50" from="3252" to="138"/>
    <trip id="415" depart="103.75" from="3742" to="-1767"/>
    <trip id="416" depart="104.00" from="1388" to="-3801"/>
    <trip id="417" depart="104.25" from="-2423" to="-505"/>
    <trip id="418" depart="104.50" from="3437" to="2447"/>
    <trip id="419" depart="104.75" from="2128" to="-4474"/>
    <trip id="420" depart="105.00" from="-2183" to="38"/>
    <trip id="421" depart="105.25" from="679" to="846"/>
    <trip id="422" depart="105.50" from="-2202" to="-592"/>
    <trip id="423" depart="105.75" from="1415" to="-330"/>
    <trip id="424" depart="106.00" from="2969" to="2183"/>
    <trip id="425" depart="106.25" from="533" to="-1483"/>
    <trip id="426" depart="106.50" from="383" to="2166"/>
    <trip id="427" depart="106.75" from="1429" to="-2961"/>
    <trip id="428" depart="107.00" from="-3883" to="-3122"/>
    <trip id="429" depart="107.25" from="119" to="1783"/>
    <trip id="430" depart="107.50" from="-1499" to="-1363"/>
    <trip id="431" depart="107.75" from="-4255" to="1345"/>
    <trip id="432" depart="108.00" from="3799" to="2903"/>
    <trip id="433" depart="108.25" from="15" to="3328"/>
    <trip id="434" depart="108.50" from="325" to="3897"/>
    <trip id="435" depart="108.75" from="-614" to="-4258"/>
    <trip id="436" depart="109.00" from="1029" to="-2893"/>
    <trip id="437" depart="109.25" from="2423" to="-3122"/>
    <trip id="438" depart="109.50" from="2486" to="338"/>
    <trip id="439" depart="109.75" from="121" to="880"/>
    <trip id="440" depart="110.00" from="-2194" to="1343"/>
    <trip id="441" depart="110.25" from="-4256" to="325"/>
    <trip id="442" depart="110.50" from="1783" to="-116"/>
    <trip id="443" depart="110.75" from="3740" to="2486"/>
    <trip id="444" depart="111.00" from="-3740" to="-3435"/>
    <trip id="445" depart="111.25" from="-3814" to="3769"/>
    <trip id="446" depart="111.50" from="1895" to="-3801"/>
    <trip id="447" depart="111.75" from="1883" to="2198"/>
    <trip id="448" depart="112.00" from="-1425" to="-1942"/>
    <trip id="449" depart="112.25" from="-2876" to="4257"/>
    <trip id="450" depart="112.50" from="-2714" to="11"/>
    <trip id="451" depart="112.75" from="-25" to="-1769"/>
    <trip id="452" depart="113.00" from="-4027" to="2893"/>
    <trip id="453" depart="113.25" from="-1415" to="-326"/>
    <trip id="454" depart="113.50" from="3607" to="585"/>
    <trip id="455" depart="113.75" from="3" to="-1429"/>
    <trip id="456" depart="114.00" from="-3787" to="3639"/>
    <trip id="457" depart="114.25" from="-1774" to="3800"/>
    <trip id="458" depart="114.50" from="-1771" to="1323"/>
    <trip id="459" depart="114.75" from="684" to="-1524"/>
    <trip id="460" depart="115.00" from="128" to="-3091"/>
    <trip id="461" depart="115.25" from="-732" to="-3131"/>
    <trip id="462" depart="115.50" from="330" to="-3131"/>
    <trip id="463" depart="115.75" from="-38" to="-597"/>
    <trip id="464" depart="116.00" from="-642" to="-623"/>
    <trip id="465" depart="116.25" from="-1415" to="3435"/>
    <trip id="466" depart="116.50" from="698" to="1532"/>
    <trip id="467" depart="116.75" from="-2872" to="1524"/>
    <trip id="468" depart="117.00" from="-1523" to="3435"/>
    <trip id="469" depart="117.25" from="1891" to="325"/>
    <trip id="470" depart="117.50" from="1483" to="2200"/>
    <trip id="471" depart="117.75" from="1532" to="-1093"/>
    <trip id="472" depart="118.00" from="1895" to="3091"/>
    <trip id="473" depart="118.25" from="-3611" to="2732"/>
    <trip id="474" depart="118.50" from="728" to="-365"/>
    <trip id="475" depart="118.75" from="-1359" to="7"/>
    <trip id="476" depart="119.00" from="2895" to="1501"/>
    <trip id="477" depart="119.25" from="2893" to="2893"/>
    <trip id="478" depart="119.50" from="-1919" to="3737"/>
    <trip id="479" depart="119.75" from="1942" to="-1493"/>
    <trip id="480" depart="120.00" from="-3119" to="-2482"/>
    <trip id="481" depart="120.25" from="-3920" to="-116"/>
    <trip id="482" depart="120.50" from="-1359" to="-2766"/>
    <trip id="483" depart="120.75" from="-612" to="1771"/>
    <trip id="484" depart="121.00" from="-3742" to="3091"/>
    <trip id="485" depart="121.25" from="-1057" to="625"/>
    <trip id="486" depart="121.50" from="-870" to="-3435"/>
    <trip id="487" depart="121.75" from="-1464" to="-2149"/>
    <trip id="488" depart="122.00" from="3497" to="2289"/>
    <trip id="489" depart="122.25" from="2158" to="1895"/>
    <trip id="490" depart="122.50" from="-2202" to="1483"/>
    <trip id="491" depart="122.75" from="2168" to="3252"/>
    <trip id="492" depart="123.00" from="-1323" to="-1523"/>
    <trip id="493" depart="123.25" from="-3897" to="-3907"/>
    <trip id="494" depart="123.50" from="-1532" to="3438"/>
    <trip id="495" depart="123.75" from="608" to="-1429"/>
    <trip id="496" depart="124.00" from="2412" to="3607"/>
    <trip id="497" depart="124.25" from="2112" to="-3739"/>
    <trip id="498" depart="124.50" from="2166" to="383"/>
    <trip id="499" depart="124.75" from="-1773" to="-625"/>
    <trip id="500" depart="125.00" from="-3166" to="336"/>
    <trip id="501" depart="125.25" from="734" to="-1950"/>
    <trip id="502" depart="125.50" from="-698" to="-25"/>
    <trip id="503" depart="125.75" from="1524" to="621"/>
    <trip id="504" depart="126.00" from="-1783" to="3252"/>
    <trip id="505" depart="126.25" from="-2439" to="-9"/>
    <trip id="506" depart="126.50" from="3764" to="-325"/>