<?xml version="1.0" encoding="UTF-8"?>

<!-- generated on 2024-03-24 13:01:17 by Eclipse SUMO netedit Version 1.18.0
<configuration xmlns:xsi="http://www.w3.org/2001/XMLSchema-instance" xsi:noNamespaceSchemaLocation="http://sumo.dlr.de/xsd/neteditConfiguration.xsd">

    <input>
        <sumocfg-file value="/Users/cianmurphy/code_directories/sumo-routing/reformat/sim_files/test_r20.sumocfg"/>
        <sumo-net-file value="/Users/cianmurphy/code_directories/sumo-routing/reformat/sim_files/rand_20.net.xml"/>
    </input>

    <output>
        <output-file value="/Users/cianmurphy/code_directories/sumo-routing/reformat/sim_files/rand_20.net.xml"/>
    </output>

    <processing>
        <geometry.min-radius.fix.railways value="false"/>
        <geometry.max-grade.fix value="false"/>
        <offset.disable-normalization value="true"/>
        <lefthand value="0"/>
    </processing>

    <junctions>
        <no-turnarounds value="true"/>
        <junctions.corner-detail value="5"/>
        <junctions.limit-turn-speed value="5.50"/>
        <rectangular-lane-cut value="0"/>
    </junctions>

    <pedestrian>
        <walkingareas value="0"/>
    </pedestrian>

</configuration>
-->

<net version="1.16" junctionCornerDetail="5" limitTurnSpeed="5.50" xmlns:xsi="http://www.w3.org/2001/XMLSchema-instance" xsi:noNamespaceSchemaLocation="http://sumo.dlr.de/xsd/net_file.xsd">

    <location netOffset="230.76,565.34" convBoundary="0.00,0.00,751.66,878.95" origBoundary="-230.76,-565.34,520.90,313.61" projParameter="!"/>

    <edge id=":1_0" function="internal">
        <lane id=":1_0_0" index="0" speed="6.15" length="9.06" shape="230.12,573.31 229.45,570.85 228.17,569.34 226.27,568.79 223.75,569.19"/>
    </edge>
    <edge id=":1_1" function="internal">
        <lane id=":1_1_0" index="0" speed="13.89" length="14.63" shape="230.12,573.31 229.63,569.65 229.06,566.07 228.38,562.51 227.57,558.91"/>
    </edge>
    <edge id=":1_2" function="internal">
        <lane id=":1_2_0" index="0" speed="7.76" length="4.20" shape="230.12,573.31 230.21,569.11"/>
    </edge>
    <edge id=":1_3" function="internal">
        <lane id=":1_3_0" index="0" speed="3.65" length="1.44" shape="230.12,573.31 230.77,572.02"/>
    </edge>
    <edge id=":1_16" function="internal">
        <lane id=":1_16_0" index="0" speed="7.76" length="10.70" shape="230.21,569.11 231.64,566.17 234.43,564.48 238.57,564.04"/>
    </edge>
    <edge id=":1_17" function="internal">
        <lane id=":1_17_0" index="0" speed="3.65" length="3.23" shape="230.77,572.02 231.51,571.53 232.36,571.83 233.30,572.92"/>
    </edge>
    <edge id=":1_4" function="internal">
        <lane id=":1_4_0" index="0" speed="6.21" length="9.11" shape="238.45,567.23 235.92,567.50 234.22,568.54 233.35,570.35 233.30,572.92"/>
    </edge>
    <edge id=":1_5" function="internal">
        <lane id=":1_5_0" index="0" speed="13.89" length="14.89" shape="238.45,567.23 234.72,567.25 231.02,567.58 227.36,568.23 223.75,569.19"/>
    </edge>
    <edge id=":1_6" function="internal">
        <lane id=":1_6_0" index="0" speed="9.12" length="4.09" shape="238.45,567.23 234.41,566.59"/>
    </edge>
    <edge id=":1_7" function="internal">
        <lane id=":1_7_0" index="0" speed="3.65" length="1.44" shape="238.45,567.23 237.28,566.39"/>
    </edge>
    <edge id=":1_18" function="internal">
        <lane id=":1_18_0" index="0" speed="9.12" length="10.75" shape="234.41,566.59 231.25,564.98 228.97,562.42 227.57,558.91"/>
    </edge>
    <edge id=":1_19" function="internal">
        <lane id=":1_19_0" index="0" speed="3.65" length="3.23" shape="237.28,566.39 236.91,565.57 237.34,564.79 238.57,564.04"/>
    </edge>
    <edge id=":1_8" function="internal">
        <lane id=":1_8_0" index="0" speed="7.81" length="10.65" shape="230.68,558.16 231.68,560.64 233.33,562.44 235.63,563.58 238.57,564.04"/>
    </edge>
    <edge id=":1_9" function="internal">
        <lane id=":1_9_0" index="0" speed="13.89" length="15.00" shape="230.68,558.16 231.50,561.82 232.20,565.50 232.80,569.21 233.30,572.92"/>
    </edge>
    <edge id=":1_10" function="internal">
        <lane id=":1_10_0" index="0" speed="8.31" length="4.02" shape="230.68,558.16 230.99,561.95 230.92,562.16"/>
    </edge>
    <edge id=":1_11" function="internal">
        <lane id=":1_11_0" index="0" speed="3.65" length="1.44" shape="230.68,558.16 230.18,559.52"/>
    </edge>
    <edge id=":1_20" function="internal">
        <lane id=":1_20_0" index="0" speed="8.31" length="10.62" shape="230.92,562.16 229.94,565.05 227.53,567.46 223.75,569.19"/>
    </edge>
    <edge id=":1_21" function="internal">
        <lane id=":1_21_0" index="0" speed="3.65" length="3.23" shape="230.18,559.52 229.50,560.09 228.63,559.89 227.57,558.91"/>
    </edge>
    <edge id=":1_12" function="internal">
        <lane id=":1_12_0" index="0" speed="6.88" length="9.72" shape="222.80,566.13 225.37,564.98 227.02,563.39 227.75,561.37 227.57,558.91"/>
    </edge>
    <edge id=":1_13" function="internal">
        <lane id=":1_13_0" index="0" speed="13.89" length="15.97" shape="222.80,566.13 226.58,565.15 230.60,564.46 234.67,564.07 238.57,564.04"/>
    </edge>
    <edge id=":1_14" function="internal">
        <lane id=":1_14_0" index="0" speed="7.72" length="4.65" shape="222.80,566.13 226.95,565.47 227.39,565.60"/>
    </edge>
    <edge id=":1_15" function="internal">
        <lane id=":1_15_0" index="0" speed="3.65" length="1.44" shape="222.80,566.13 224.19,566.54"/>
    </edge>
    <edge id=":1_22" function="internal">
        <lane id=":1_22_0" index="0" speed="7.72" length="10.27" shape="227.39,565.60 230.08,566.39 232.20,568.87 233.30,572.92"/>
    </edge>
    <edge id=":1_23" function="internal">
        <lane id=":1_23_0" index="0" speed="3.65" length="3.23" shape="224.19,566.54 224.81,567.19 224.66,568.07 223.75,569.19"/>
    </edge>
    <edge id=":10_0" function="internal">
        <lane id=":10_0_0" index="0" speed="6.07" length="8.43" shape="72.39,616.16 70.07,616.53 68.27,616.03 67.00,614.67 66.24,612.44"/>
    </edge>
    <edge id=":10_1" function="internal">
        <lane id=":10_1_0" index="0" speed="3.65" length="1.44" shape="72.39,616.16 71.00,615.75"/>
    </edge>
    <edge id=":10_3" function="internal">
        <lane id=":10_3_0" index="0" speed="3.65" length="3.23" shape="71.00,615.75 70.39,615.11 70.53,614.22 71.44,613.10"/>
    </edge>
    <edge id=":10_2" function="internal">
        <lane id=":10_2_0" index="0" speed="3.90" length="2.81" shape="69.39,611.86 69.64,612.61 70.07,613.06 70.67,613.23 71.44,613.10"/>
    </edge>
    <edge id=":115_0" function="internal">
        <lane id=":115_0_0" index="0" speed="7.70" length="10.86" shape="405.61,252.70 403.20,252.25 400.89,252.81 398.68,254.38 396.57,256.95"/>
    </edge>
    <edge id=":115_1" function="internal">
        <lane id=":115_1_0" index="0" speed="13.89" length="14.97" shape="405.61,252.70 402.08,251.44 398.51,250.35 394.89,249.39 391.24,248.54"/>
    </edge>
    <edge id=":115_2" function="internal">
        <lane id=":115_2_0" index="0" speed="13.89" length="15.44" shape="391.94,245.41 395.65,246.29 399.43,247.29 403.16,248.43 406.76,249.71"/>
    </edge>
    <edge id=":115_3" function="internal">
        <lane id=":115_3_0" index="0" speed="7.50" length="4.61" shape="391.94,245.41 396.26,247.03"/>
    </edge>
    <edge id=":115_6" function="internal">
        <lane id=":115_6_0" index="0" speed="7.50" length="11.24" shape="396.26,247.03 398.47,249.49 398.58,252.80 396.57,256.95"/>
    </edge>
    <edge id=":115_4" function="internal">
        <lane id=":115_4_0" index="0" speed="5.85" length="9.12" shape="393.91,255.18 395.06,252.79 395.00,250.88 393.73,249.46 391.24,248.54"/>
    </edge>
    <edge id=":115_5" function="internal">
        <lane id=":115_5_0" index="0" speed="9.02" length="15.22" shape="393.91,255.18 396.79,251.73 399.89,249.67 403.21,249.00 406.76,249.71"/>
    </edge>
    <edge id=":118_0" function="internal">
        <lane id=":118_0_0" index="0" speed="13.89" length="21.07" shape="-0.36,250.04 -0.41,246.10 0.78,241.57 3.20,236.45 6.86,230.74"/>
    </edge>
    <edge id=":118_1" function="internal">
        <lane id=":118_1_0" index="0" speed="10.00" length="4.34" shape="-0.36,250.04 -0.09,246.23 0.20,245.80"/>
    </edge>
    <edge id=":118_7" function="internal">
        <lane id=":118_7_0" index="0" speed="10.00" length="15.73" shape="0.20,245.80 2.19,242.78 6.47,239.70 12.75,236.97"/>
    </edge>
    <edge id=":118_2" function="internal">
        <lane id=":118_2_0" index="0" speed="8.86" length="15.56" shape="13.81,239.99 8.62,242.15 5.06,244.45 3.12,246.89 2.79,249.46"/>
    </edge>
    <edge id=":118_3" function="internal">
        <lane id=":118_3_0" index="0" speed="7.64" length="22.19" shape="13.81,239.99 6.61,241.78 3.05,240.83 3.14,237.15 6.86,230.74"/>
    </edge>
    <edge id=":118_4" function="internal">
        <lane id=":118_4_0" index="0" speed="3.65" length="1.44" shape="13.81,239.99 12.41,239.63"/>
    </edge>
    <edge id=":118_8" function="internal">
        <lane id=":118_8_0" index="0" speed="3.65" length="3.23" shape="12.41,239.63 11.77,239.01 11.88,238.12 12.75,236.97"/>
    </edge>
    <edge id=":118_5" function="internal">
        <lane id=":118_5_0" index="0" speed="5.47" length="10.49" shape="9.47,232.59 7.71,235.63 7.67,237.37 9.35,237.82 12.75,236.97"/>
    </edge>
    <edge id=":118_6" function="internal">
        <lane id=":118_6_0" index="0" speed="13.89" length="18.52" shape="9.47,232.59 6.14,237.74 3.91,242.26 2.80,246.17 2.79,249.46"/>
    </edge>
    <edge id=":12_0" function="internal">
        <lane id=":12_0_0" index="0" speed="13.89" length="19.16" shape="310.28,398.23 307.27,395.06 303.21,391.84 298.84,389.03 294.89,387.08"/>
    </edge>
    <edge id=":12_1" function="internal">
        <lane id=":12_1_0" index="0" speed="13.89" length="20.94" shape="310.28,398.23 307.74,394.31 304.92,389.25 302.31,384.07 300.44,379.79"/>
    </edge>
    <edge id=":12_2" function="internal">
        <lane id=":12_2_0" index="0" speed="10.88" length="5.51" shape="310.28,398.23 307.98,393.91 307.89,393.31"/>
    </edge>
    <edge id=":12_3" function="internal">
        <lane id=":12_3_0" index="0" speed="7.68" length="5.06" shape="310.28,398.23 308.00,393.88 308.02,393.73"/>
    </edge>
    <edge id=":12_4" function="internal">
        <lane id=":12_4_0" index="0" speed="3.65" length="1.44" shape="310.28,398.23 310.21,396.79"/>
    </edge>
    <edge id=":12_25" function="internal">
        <lane id=":12_25_0" index="0" speed="10.88" length="14.52" shape="307.89,393.31 307.31,389.36 308.27,384.58 310.88,379.57"/>
    </edge>
    <edge id=":12_26" function="internal">
        <lane id=":12_26_0" index="0" speed="7.68" length="12.84" shape="308.02,393.73 308.34,390.49 311.28,388.05 316.84,386.56"/>
    </edge>
    <edge id=":12_27" function="internal">
        <lane id=":12_27_0" index="0" speed="3.65" length="3.23" shape="310.21,396.79 310.61,395.99 311.49,395.84 312.85,396.32"/>
    </edge>
    <edge id=":12_5" function="internal">
        <lane id=":12_5_0" index="0" speed="6.05" length="10.54" shape="317.30,389.73 313.86,390.60 311.97,392.00 311.64,393.90 312.85,396.32"/>
    </edge>
    <edge id=":12_6" function="internal">
        <lane id=":12_6_0" index="0" speed="13.89" length="22.69" shape="317.30,389.73 312.37,389.88 305.98,389.37 299.66,388.37 294.89,387.08"/>
    </edge>
    <edge id=":12_7" function="internal">
        <lane id=":12_7_0" index="0" speed="10.61" length="7.74" shape="317.30,389.73 311.62,389.79 309.68,389.11"/>
    </edge>
    <edge id=":12_8" function="internal">
        <lane id=":12_8_0" index="0" speed="7.40" length="7.33" shape="317.30,389.73 311.41,389.90 310.14,389.21"/>
    </edge>
    <edge id=":12_9" function="internal">
        <lane id=":12_9_0" index="0" speed="3.65" length="1.44" shape="317.30,389.73 316.00,389.11"/>
    </edge>
    <edge id=":12_28" function="internal">
        <lane id=":12_28_0" index="0" speed="10.61" length="13.66" shape="309.68,389.11 306.91,388.15 303.19,384.82 300.44,379.79"/>
    </edge>
    <edge id=":12_29" function="internal">
        <lane id=":12_29_0" index="0" speed="7.40" length="11.35" shape="310.14,389.21 308.38,388.26 308.20,384.82 310.88,379.57"/>
    </edge>
    <edge id=":12_30" function="internal">
        <lane id=":12_30_0" index="0" speed="3.65" length="3.23" shape="316.00,389.11 315.49,388.38 315.77,387.53 316.84,386.56"/>
    </edge>
    <edge id=":12_10" function="internal">
        <lane id=":12_10_0" index="0" speed="5.50" length="9.60" shape="313.54,381.34 312.16,384.04 312.25,385.81 313.81,386.65 316.84,386.56"/>
    </edge>
    <edge id=":12_11" function="internal">
        <lane id=":12_11_0" index="0" speed="9.79" length="16.07" shape="313.54,381.34 311.40,385.42 310.57,389.28 311.06,392.91 312.85,396.32"/>
    </edge>
    <edge id=":12_12" function="internal">
        <lane id=":12_12_0" index="0" speed="10.55" length="21.36" shape="313.54,381.34 309.77,385.60 305.41,387.97 300.45,388.47 294.89,387.08"/>
    </edge>
    <edge id=":12_13" function="internal">
        <lane id=":12_13_0" index="0" speed="7.65" length="18.93" shape="313.54,381.34 309.74,385.70 306.30,386.90 303.20,384.92 300.44,379.79"/>
    </edge>
    <edge id=":12_14" function="internal">
        <lane id=":12_14_0" index="0" speed="3.65" length="1.44" shape="313.54,381.34 312.21,381.90"/>
    </edge>
    <edge id=":12_31" function="internal">
        <lane id=":12_31_0" index="0" speed="3.65" length="3.23" shape="312.21,381.90 311.32,381.79 310.88,381.01 310.88,379.57"/>
    </edge>
    <edge id=":12_15" function="internal">
        <lane id=":12_15_0" index="0" speed="5.93" length="10.78" shape="303.43,378.64 305.00,381.57 306.76,382.71 308.72,382.04 310.88,379.57"/>
    </edge>
    <edge id=":12_16" function="internal">
        <lane id=":12_16_0" index="0" speed="9.51" length="17.03" shape="303.43,378.64 305.61,382.64 308.58,385.30 312.32,386.61 316.84,386.56"/>
    </edge>
    <edge id=":12_17" function="internal">
        <lane id=":12_17_0" index="0" speed="13.89" length="20.08" shape="303.43,378.64 305.24,382.81 307.69,387.73 310.37,392.52 312.85,396.32"/>
    </edge>
    <edge id=":12_18" function="internal">
        <lane id=":12_18_0" index="0" speed="7.40" length="4.41" shape="303.43,378.64 304.52,382.91"/>
    </edge>
    <edge id=":12_19" function="internal">
        <lane id=":12_19_0" index="0" speed="3.65" length="1.44" shape="303.43,378.64 303.11,380.05"/>
    </edge>
    <edge id=":12_32" function="internal">
        <lane id=":12_32_0" index="0" speed="7.40" length="14.40" shape="304.52,382.91 304.91,384.40 303.98,387.73 300.64,388.62 294.89,387.08"/>
    </edge>
    <edge id=":12_33" function="internal">
        <lane id=":12_33_0" index="0" speed="3.65" length="3.23" shape="303.11,380.05 302.51,380.71 301.62,380.62 300.44,379.79"/>
    </edge>
    <edge id=":12_20" function="internal">
        <lane id=":12_20_0" index="0" speed="5.49" length="9.62" shape="296.07,384.10 299.01,384.89 300.72,384.44 301.20,382.74 300.44,379.79"/>
    </edge>
    <edge id=":12_21" function="internal">
        <lane id=":12_21_0" index="0" speed="9.45" length="16.95" shape="296.07,384.10 300.49,385.21 304.43,384.82 307.89,382.94 310.88,379.57"/>
    </edge>
    <edge id=":12_22" function="internal">
        <lane id=":12_22_0" index="0" speed="13.89" length="21.03" shape="296.07,384.10 300.58,385.37 306.34,386.30 312.16,386.74 316.84,386.56"/>
    </edge>
    <edge id=":12_23" function="internal">
        <lane id=":12_23_0" index="0" speed="13.89" length="20.90" shape="296.07,384.10 300.24,386.23 305.09,389.40 309.63,392.98 312.85,396.32"/>
    </edge>
    <edge id=":12_24" function="internal">
        <lane id=":12_24_0" index="0" speed="3.65" length="1.33" shape="296.07,384.10 296.83,385.19"/>
    </edge>
    <edge id=":12_34" function="internal">
        <lane id=":12_34_0" index="0" speed="3.65" length="3.35" shape="296.83,385.19 296.89,385.29 296.97,386.18 296.30,386.78 294.89,387.08"/>
    </edge>
    <edge id=":122_0" function="internal">
        <lane id=":122_0_0" index="0" speed="13.11" length="23.68" shape="662.97,339.87 667.89,346.21 671.04,351.81 672.42,356.68 672.03,360.83"/>
    </edge>
    <edge id=":122_1" function="internal">
        <lane id=":122_1_0" index="0" speed="6.30" length="2.66" shape="662.97,339.87 663.98,342.34"/>
    </edge>
    <edge id=":122_7" function="internal">
        <lane id=":122_7_0" index="0" speed="6.30" length="12.69" shape="663.98,342.34 664.51,343.62 663.46,347.09 660.56,349.26 656.51,349.09"/>
    </edge>
    <edge id=":122_2" function="internal">
        <lane id=":122_2_0" index="0" speed="5.56" length="11.55" shape="657.66,346.10 661.48,347.24 663.24,346.93 662.93,345.18 660.55,341.97"/>
    </edge>
    <edge id=":122_3" function="internal">
        <lane id=":122_3_0" index="0" speed="10.11" length="22.51" shape="657.66,346.10 664.98,349.49 669.81,353.07 672.16,356.85 672.03,360.83"/>
    </edge>
    <edge id=":122_4" function="internal">
        <lane id=":122_4_0" index="0" speed="9.01" length="17.67" shape="669.00,359.81 668.88,357.17 666.76,354.51 662.64,351.81 656.51,349.09"/>
    </edge>
    <edge id=":122_5" function="internal">
        <lane id=":122_5_0" index="0" speed="12.19" length="20.39" shape="669.00,359.81 669.21,356.51 667.87,352.43 664.98,347.59 660.55,341.97"/>
    </edge>
    <edge id=":122_6" function="internal">
        <lane id=":122_6_0" index="0" speed="3.65" length="1.23" shape="669.00,359.81 669.97,359.06"/>
    </edge>
    <edge id=":122_8" function="internal">
        <lane id=":122_8_0" index="0" speed="3.65" length="3.45" shape="669.97,359.06 670.14,358.93 671.02,358.80 671.65,359.44 672.03,360.83"/>
    </edge>
    <edge id=":124_0" function="internal">
        <lane id=":124_0_0" index="0" speed="6.08" length="8.99" shape="750.11,632.37 751.57,634.45 751.90,636.37 751.08,638.14 749.11,639.76"/>
    </edge>
    <edge id=":124_1" function="internal">
        <lane id=":124_1_0" index="0" speed="3.91" length="3.00" shape="747.45,637.03 748.10,636.49 748.38,635.90 748.27,635.26 747.78,634.56"/>
    </edge>
    <edge id=":137_0" function="internal">
        <lane id=":137_0_0" index="0" speed="6.69" length="3.83" shape="380.64,879.51 379.70,880.12 378.96,880.41 378.17,880.45 377.06,880.30"/>
    </edge>
    <edge id=":137_1" function="internal">
        <lane id=":137_1_0" index="0" speed="3.65" length="1.44" shape="380.64,879.51 379.20,879.54"/>
    </edge>
    <edge id=":137_3" function="internal">
        <lane id=":137_3_0" index="0" speed="3.65" length="3.23" shape="379.20,879.54 378.41,879.11 378.28,878.22 378.81,876.88"/>
    </edge>
    <edge id=":137_2" function="internal">
        <lane id=":137_2_0" index="0" speed="4.23" length="1.28" shape="377.62,877.14 377.99,877.20 378.25,877.18 378.50,877.09 378.81,876.88"/>
    </edge>
    <edge id=":14_0" function="internal">
        <lane id=":14_0_0" index="0" speed="7.36" length="11.12" shape="118.48,211.82 116.75,208.76 114.78,206.83 112.56,206.04 110.10,206.37"/>
    </edge>
    <edge id=":14_1" function="internal">
        <lane id=":14_1_0" index="0" speed="7.41" length="16.65" shape="118.48,211.82 117.09,207.04 117.82,203.77 120.67,202.02 125.64,201.77"/>
    </edge>
    <edge id=":14_2" function="internal">
        <lane id=":14_2_0" index="0" speed="3.65" length="1.44" shape="118.48,211.82 118.72,210.40"/>
    </edge>
    <edge id=":14_9" function="internal">
        <lane id=":14_9_0" index="0" speed="3.65" length="3.23" shape="118.72,210.40 119.29,209.71 120.19,209.75 121.40,210.52"/>
    </edge>
    <edge id=":14_3" function="internal">
        <lane id=":14_3_0" index="0" speed="5.69" length="9.22" shape="125.37,204.96 122.62,205.10 121.04,206.07 120.63,207.88 121.40,210.52"/>
    </edge>
    <edge id=":14_4" function="internal">
        <lane id=":14_4_0" index="0" speed="13.89" length="15.44" shape="125.37,204.96 121.54,204.77 117.63,204.89 113.77,205.40 110.10,206.37"/>
    </edge>
    <edge id=":14_5" function="internal">
        <lane id=":14_5_0" index="0" speed="3.65" length="1.44" shape="125.37,204.96 124.24,204.06"/>
    </edge>
    <edge id=":14_10" function="internal">
        <lane id=":14_10_0" index="0" speed="3.65" length="3.23" shape="124.24,204.06 123.91,203.23 124.38,202.47 125.64,201.77"/>
    </edge>
    <edge id=":14_6" function="internal">
        <lane id=":14_6_0" index="0" speed="13.89" length="16.77" shape="109.04,203.35 112.93,202.35 117.24,201.79 121.61,201.61 125.64,201.77"/>
    </edge>
    <edge id=":14_7" function="internal">
        <lane id=":14_7_0" index="0" speed="8.71" length="4.22" shape="109.04,203.35 112.80,202.76 113.20,202.88"/>
    </edge>
    <edge id=":14_8" function="internal">
        <lane id=":14_8_0" index="0" speed="3.65" length="1.44" shape="109.04,203.35 110.44,203.71"/>
    </edge>
    <edge id=":14_11" function="internal">
        <lane id=":14_11_0" index="0" speed="8.71" length="11.74" shape="113.20,202.88 116.11,203.75 118.98,206.34 121.40,210.52"/>
    </edge>
    <edge id=":14_12" function="internal">
        <lane id=":14_12_0" index="0" speed="3.65" length="3.23" shape="110.44,203.71 111.08,204.33 110.97,205.22 110.10,206.37"/>
    </edge>
    <edge id=":18_0" function="internal">
        <lane id=":18_0_0" index="0" speed="8.64" length="11.94" shape="626.35,506.07 624.34,504.65 621.80,504.08 618.72,504.36 615.12,505.49"/>
    </edge>
    <edge id=":18_1" function="internal">
        <lane id=":18_1_0" index="0" speed="13.89" length="15.38" shape="626.35,506.07 623.67,503.37 620.81,500.74 617.88,498.21 614.94,495.78"/>
    </edge>
    <edge id=":18_2" function="internal">
        <lane id=":18_2_0" index="0" speed="10.29" length="3.55" shape="626.35,506.07 624.40,503.23 624.37,503.13"/>
    </edge>
    <edge id=":18_3" function="internal">
        <lane id=":18_3_0" index="0" speed="3.65" length="1.44" shape="626.35,506.07 626.11,504.65"/>
    </edge>
    <edge id=":18_16" function="internal">
        <lane id=":18_16_0" index="0" speed="10.29" length="11.57" shape="624.37,503.13 623.44,499.91 623.47,496.10 624.50,491.81"/>
    </edge>
    <edge id=":18_17" function="internal">
        <lane id=":18_17_0" index="0" speed="3.65" length="3.23" shape="626.11,504.65 626.42,503.81 627.27,503.55 628.68,503.87"/>
    </edge>
    <edge id=":18_4" function="internal">
        <lane id=":18_4_0" index="0" speed="9.09" length="11.66" shape="627.54,492.84 626.69,496.24 626.60,499.22 627.26,501.76 628.68,503.87"/>
    </edge>
    <edge id=":18_5" function="internal">
        <lane id=":18_5_0" index="0" speed="13.11" length="18.30" shape="627.54,492.84 625.64,496.95 622.94,500.43 619.43,503.27 615.12,505.49"/>
    </edge>
    <edge id=":18_6" function="internal">
        <lane id=":18_6_0" index="0" speed="7.65" length="5.81" shape="627.54,492.84 625.44,496.90 624.41,497.58"/>
    </edge>
    <edge id=":18_7" function="internal">
        <lane id=":18_7_0" index="0" speed="3.65" length="1.44" shape="627.54,492.84 626.39,493.72"/>
    </edge>
    <edge id=":18_18" function="internal">
        <lane id=":18_18_0" index="0" speed="7.65" length="10.57" shape="624.41,497.58 622.64,498.74 619.14,498.37 614.94,495.78"/>
    </edge>
    <edge id=":18_19" function="internal">
        <lane id=":18_19_0" index="0" speed="3.65" length="3.23" shape="626.39,493.72 625.51,493.84 624.88,493.21 624.50,491.81"/>
    </edge>
    <edge id=":18_8" function="internal">
        <lane id=":18_8_0" index="0" speed="6.04" length="9.72" shape="616.95,493.29 619.50,494.89 621.61,495.17 623.28,494.15 624.50,491.81"/>
    </edge>
    <edge id=":18_9" function="internal">
        <lane id=":18_9_0" index="0" speed="13.89" length="15.80" shape="616.95,493.29 619.94,495.77 622.98,498.40 625.94,501.13 628.68,503.87"/>
    </edge>
    <edge id=":18_10" function="internal">
        <lane id=":18_10_0" index="0" speed="7.41" length="4.99" shape="616.95,493.29 620.38,496.93"/>
    </edge>
    <edge id=":18_11" function="internal">
        <lane id=":18_11_0" index="0" speed="3.65" length="1.44" shape="616.95,493.29 617.38,494.67"/>
    </edge>
    <edge id=":18_20" function="internal">
        <lane id=":18_20_0" index="0" speed="7.41" length="11.69" shape="620.38,496.93 621.21,500.17 619.46,503.02 615.12,505.49"/>
    </edge>
    <edge id=":18_21" function="internal">
        <lane id=":18_21_0" index="0" speed="3.65" length="3.23" shape="617.38,494.67 617.19,495.55 616.37,495.91 614.94,495.78"/>
    </edge>
    <edge id=":18_12" function="internal">
        <lane id=":18_12_0" index="0" speed="5.69" length="9.22" shape="613.92,502.52 616.32,501.16 617.29,499.58 616.83,497.79 614.94,495.78"/>
    </edge>
    <edge id=":18_13" function="internal">
        <lane id=":18_13_0" index="0" speed="12.11" length="15.54" shape="613.92,502.52 617.61,500.63 620.60,498.22 622.90,495.28 624.50,491.81"/>
    </edge>
    <edge id=":18_14" function="internal">
        <lane id=":18_14_0" index="0" speed="9.86" length="3.91" shape="613.92,502.52 617.67,501.38"/>
    </edge>
    <edge id=":18_15" function="internal">
        <lane id=":18_15_0" index="0" speed="3.65" length="1.44" shape="613.92,502.52 615.34,502.81"/>
    </edge>
    <edge id=":18_22" function="internal">
        <lane id=":18_22_0" index="0" speed="9.86" length="11.86" shape="617.67,501.38 618.51,501.13 622.49,500.89 625.88,501.81 628.68,503.87"/>
    </edge>
    <edge id=":18_23" function="internal">
        <lane id=":18_23_0" index="0" speed="3.65" length="3.23" shape="615.34,502.81 616.01,503.41 615.93,504.30 615.12,505.49"/>
    </edge>
    <edge id=":2_0" function="internal">
        <lane id=":2_0_0" index="0" speed="13.89" length="15.15" shape="177.03,348.41 176.13,344.74 175.14,341.06 173.98,337.44 172.60,333.94"/>
    </edge>
    <edge id=":2_1" function="internal">
        <lane id=":2_1_0" index="0" speed="7.38" length="5.11" shape="177.03,348.41 176.47,343.32"/>
    </edge>
    <edge id=":2_2" function="internal">
        <lane id=":2_2_0" index="0" speed="3.65" length="1.44" shape="177.03,348.41 177.53,347.05"/>
    </edge>
    <edge id=":2_9" function="internal">
        <lane id=":2_9_0" index="0" speed="7.38" length="12.40" shape="176.47,343.32 176.44,343.07 177.79,339.96 181.06,339.08 186.25,340.41"/>
    </edge>
    <edge id=":2_10" function="internal">
        <lane id=":2_10_0" index="0" speed="3.65" length="3.23" shape="177.53,347.05 178.21,346.48 179.08,346.68 180.14,347.66"/>
    </edge>
    <edge id=":2_3" function="internal">
        <lane id=":2_3_0" index="0" speed="5.58" length="9.36" shape="185.07,343.39 182.29,342.67 180.55,343.15 179.83,344.81 180.14,347.66"/>
    </edge>
    <edge id=":2_4" function="internal">
        <lane id=":2_4_0" index="0" speed="13.26" length="15.99" shape="185.07,343.39 181.45,341.77 177.85,339.68 174.75,337.08 172.60,333.94"/>
    </edge>
    <edge id=":2_5" function="internal">
        <lane id=":2_5_0" index="0" speed="3.65" length="1.44" shape="185.07,343.39 184.25,342.20"/>
    </edge>
    <edge id=":2_11" function="internal">
        <lane id=":2_11_0" index="0" speed="3.65" length="3.23" shape="184.25,342.20 184.18,341.31 184.84,340.71 186.25,340.41"/>
    </edge>
    <edge id=":2_6" function="internal">
        <lane id=":2_6_0" index="0" speed="12.27" length="13.63" shape="175.52,332.64 177.40,335.52 179.91,337.55 182.90,339.06 186.25,340.41"/>
    </edge>
    <edge id=":2_7" function="internal">
        <lane id=":2_7_0" index="0" speed="13.89" length="15.73" shape="175.52,332.64 176.93,336.23 178.15,340.04 179.21,343.90 180.14,347.66"/>
    </edge>
    <edge id=":2_8" function="internal">
        <lane id=":2_8_0" index="0" speed="3.65" length="1.44" shape="175.52,332.64 175.28,334.06"/>
    </edge>
    <edge id=":2_12" function="internal">
        <lane id=":2_12_0" index="0" speed="3.65" length="3.23" shape="175.28,334.06 174.71,334.75 173.81,334.71 172.60,333.94"/>
    </edge>
    <edge id=":24_0" function="internal">
        <lane id=":24_0_0" index="0" speed="13.89" length="13.91" shape="565.25,751.68 553.59,759.27"/>
    </edge>
    <edge id=":24_1" function="internal">
        <lane id=":24_1_0" index="0" speed="8.01" length="3.81" shape="565.25,751.68 561.75,753.19"/>
    </edge>
    <edge id=":24_2" function="internal">
        <lane id=":24_2_0" index="0" speed="3.65" length="1.44" shape="565.25,751.68 563.81,751.62"/>
    </edge>
    <edge id=":24_9" function="internal">
        <lane id=":24_9_0" index="0" speed="8.01" length="10.14" shape="561.75,753.19 558.59,753.23 555.77,751.81 553.28,748.92"/>
    </edge>
    <edge id=":24_10" function="internal">
        <lane id=":24_10_0" index="0" speed="3.65" length="3.23" shape="563.81,751.62 563.06,751.15 562.98,750.26 563.59,748.95"/>
    </edge>
    <edge id=":24_3" function="internal">
        <lane id=":24_3_0" index="0" speed="6.51" length="8.87" shape="555.97,747.19 557.55,749.03 559.35,749.93 561.36,749.91 563.59,748.95"/>
    </edge>
    <edge id=":24_4" function="internal">
        <lane id=":24_4_0" index="0" speed="8.04" length="13.93" shape="555.97,747.19 557.56,750.65 557.69,753.82 556.37,756.69 553.59,759.27"/>
    </edge>
    <edge id=":24_5" function="internal">
        <lane id=":24_5_0" index="0" speed="3.65" length="1.44" shape="555.97,747.19 555.94,748.64"/>
    </edge>
    <edge id=":24_11" function="internal">
        <lane id=":24_11_0" index="0" speed="3.65" length="3.23" shape="555.94,748.64 555.49,749.40 554.60,749.50 553.28,748.92"/>
    </edge>
    <edge id=":24_6" function="internal">
        <lane id=":24_6_0" index="0" speed="6.55" length="8.90" shape="551.77,756.65 553.54,755.00 554.38,753.16 554.29,751.14 553.28,748.92"/>
    </edge>
    <edge id=":24_7" function="internal">