<?xml version="1.0" encoding="UTF-8"?>

<!-- generated on 2024-03-25 16:09:53 by Eclipse SUMO netedit Version 1.18.0
<configuration xmlns:xsi="http://www.w3.org/2001/XMLSchema-instance" xsi:noNamespaceSchemaLocation="http://sumo.dlr.de/xsd/neteditConfiguration.xsd">

    <input>
        <sumo-net-file value="/Users/cianmurphy/code_directories/sumo-routing/reformat/sim_files/rand_20.net.xml"/>
    </input>

    <output>
        <output-file value="/Users/cianmurphy/code_directories/sumo-routing/reformat/sim_files/rand_20.net.xml"/>
    </output>

    <processing>
        <geometry.min-radius.fix.railways value="false"/>
        <geometry.max-grade.fix value="false"/>
        <offset.disable-normalization value="true"/>
        <lefthand value="0"/>
    </processing>

    <junctions>
        <no-turnarounds value="true"/>
        <junctions.corner-detail value="5"/>
        <junctions.limit-turn-speed value="5.50"/>
        <rectangular-lane-cut value="0"/>
    </junctions>

    <pedestrian>
        <walkingareas value="0"/>
    </pedestrian>

</configuration>
-->

<net version="1.16" junctionCornerDetail="5" limitTurnSpeed="5.50" xmlns:xsi="http://www.w3.org/2001/XMLSchema-instance" xsi:noNamespaceSchemaLocation="http://sumo.dlr.de/xsd/net_file.xsd">

    <location netOffset="230.76,565.34" convBoundary="0.00,106.94,627.56,686.25" origBoundary="-230.76,-565.34,520.90,313.61" projParameter="!"/>

    <edge id=":1_0" function="internal">
        <lane id=":1_0_0" index="0" speed="13.89" length="30.02" shape="236.93,574.98 218.56,551.23"/>
    </edge>
    <edge id=":1_1" function="internal">
        <lane id=":1_1_0" index="0" speed="13.89" length="29.89" shape="236.93,574.98 233.92,569.76 230.40,561.61 227.31,553.26 225.59,547.42"/>
    </edge>
    <edge id=":1_2" function="internal">
        <lane id=":1_2_0" index="0" speed="7.40" length="8.48" shape="236.93,574.98 233.59,570.04 233.41,567.52"/>
    </edge>
    <edge id=":1_3" function="internal">
        <lane id=":1_3_0" index="0" speed="3.65" length="1.44" shape="236.93,574.98 236.75,573.55"/>
    </edge>
    <edge id=":1_16" function="internal">
        <lane id=":1_16_0" index="0" speed="7.40" length="10.36" shape="233.41,567.52 233.35,566.59 236.20,564.63 242.14,564.17"/>
    </edge>
    <edge id=":1_17" function="internal">
        <lane id=":1_17_0" index="0" speed="3.65" length="3.23" shape="236.75,573.55 237.10,572.72 237.97,572.50 239.36,572.89"/>
    </edge>
    <edge id=":1_4" function="internal">
        <lane id=":1_4_0" index="0" speed="5.49" length="9.63" shape="242.02,567.37 238.98,567.60 237.53,568.60 237.65,570.37 239.36,572.89"/>
    </edge>
    <edge id=":1_5" function="internal">
        <lane id=":1_5_0" index="0" speed="13.89" length="29.41" shape="242.02,567.37 236.02,566.19 230.11,563.10 224.29,558.12 218.56,551.23"/>
    </edge>
    <edge id=":1_6" function="internal">
        <lane id=":1_6_0" index="0" speed="12.13" length="7.15" shape="242.02,567.37 236.28,565.94 235.32,565.17"/>
    </edge>
    <edge id=":1_7" function="internal">
        <lane id=":1_7_0" index="0" speed="3.65" length="1.44" shape="242.02,567.37 240.85,566.52"/>
    </edge>
    <edge id=":1_18" function="internal">
        <lane id=":1_18_0" index="0" speed="12.13" length="20.81" shape="235.32,565.17 231.62,562.14 228.06,555.97 225.59,547.42"/>
    </edge>
    <edge id=":1_19" function="internal">
        <lane id=":1_19_0" index="0" speed="3.65" length="3.23" shape="240.85,566.52 240.48,565.71 240.91,564.92 242.14,564.17"/>
    </edge>
    <edge id=":1_8" function="internal">
        <lane id=":1_8_0" index="0" speed="11.19" length="23.66" shape="228.73,546.80 230.83,554.26 233.76,559.64 237.53,562.94 242.14,564.17"/>
    </edge>
    <edge id=":1_9" function="internal">
        <lane id=":1_9_0" index="0" speed="13.89" length="28.27" shape="228.73,546.80 230.34,552.41 233.19,560.26 236.46,567.90 239.36,572.89"/>
    </edge>
    <edge id=":1_10" function="internal">
        <lane id=":1_10_0" index="0" speed="6.21" length="1.84" shape="228.73,546.80 228.47,548.62"/>
    </edge>
    <edge id=":1_11" function="internal">
        <lane id=":1_11_0" index="0" speed="3.65" length="1.44" shape="228.73,546.80 228.18,548.13"/>
    </edge>
    <edge id=":1_20" function="internal">
        <lane id=":1_20_0" index="0" speed="6.21" length="13.38" shape="228.47,548.62 228.16,550.74 225.45,553.15 221.85,553.49 218.56,551.23"/>
    </edge>
    <edge id=":1_21" function="internal">
        <lane id=":1_21_0" index="0" speed="3.65" length="3.23" shape="228.18,548.13 227.47,548.68 226.61,548.44 225.59,547.42"/>
    </edge>
    <edge id=":1_12" function="internal">
        <lane id=":1_12_0" index="0" speed="5.66" length="12.29" shape="221.16,549.35 223.92,552.66 225.58,553.44 226.14,551.69 225.59,547.42"/>
    </edge>
    <edge id=":1_13" function="internal">
        <lane id=":1_13_0" index="0" speed="13.89" length="26.51" shape="221.16,549.35 226.38,555.68 231.62,560.27 236.88,563.09 242.14,564.17"/>
    </edge>
    <edge id=":1_14" function="internal">
        <lane id=":1_14_0" index="0" speed="13.89" length="29.76" shape="221.16,549.35 239.36,572.89"/>
    </edge>
    <edge id=":1_15" function="internal">
        <lane id=":1_15_0" index="0" speed="3.65" length="1.44" shape="221.16,549.35 221.21,550.79"/>
    </edge>
    <edge id=":1_22" function="internal">
        <lane id=":1_22_0" index="0" speed="3.65" length="3.23" shape="221.21,550.79 220.80,551.58 219.92,551.73 218.56,551.23"/>
    </edge>
    <edge id=":10_0" function="internal">
        <lane id=":10_0_0" index="0" speed="13.89" length="0.31" shape="94.43,379.82 94.25,379.56"/>
    </edge>
    <edge id=":10_1" function="internal">
        <lane id=":10_1_0" index="0" speed="3.65" length="2.34" shape="94.43,379.82 94.37,378.38 94.79,377.58"/>
    </edge>
    <edge id=":10_3" function="internal">
        <lane id=":10_3_0" index="0" speed="3.65" length="2.34" shape="94.79,377.58 95.67,377.44 97.02,377.94"/>
    </edge>
    <edge id=":10_2" function="internal">
        <lane id=":10_2_0" index="0" speed="13.89" length="0.27" shape="96.86,377.72 97.02,377.94"/>
    </edge>
    <edge id=":115_0" function="internal">
        <lane id=":115_0_0" index="0" speed="6.11" length="9.06" shape="405.96,254.40 403.61,253.37 401.64,253.44 400.05,254.60 398.84,256.85"/>
    </edge>
    <edge id=":115_1" function="internal">
        <lane id=":115_1_0" index="0" speed="13.89" length="14.90" shape="405.96,254.40 402.71,252.56 399.34,250.99 395.85,249.72 392.24,248.76"/>
    </edge>
    <edge id=":115_2" function="internal">
        <lane id=":115_2_0" index="0" speed="13.89" length="15.97" shape="392.93,245.63 396.69,246.66 400.53,248.07 404.24,249.78 407.65,251.68"/>
    </edge>
    <edge id=":115_3" function="internal">
        <lane id=":115_3_0" index="0" speed="7.84" length="4.55" shape="392.93,245.63 396.77,247.10 397.08,247.42"/>
    </edge>
    <edge id=":115_6" function="internal">
        <lane id=":115_6_0" index="0" speed="7.84" length="10.39" shape="397.08,247.42 399.04,249.46 399.73,252.71 398.84,256.85"/>
    </edge>
    <edge id=":115_4" function="internal">
        <lane id=":115_4_0" index="0" speed="6.31" length="9.27" shape="395.83,255.76 396.39,253.17 395.98,251.14 394.60,249.67 392.24,248.76"/>
    </edge>
    <edge id=":115_5" function="internal">
        <lane id=":115_5_0" index="0" speed="7.68" length="15.04" shape="395.83,255.76 397.85,252.01 400.49,250.09 403.75,249.98 407.65,251.68"/>
    </edge>
    <edge id=":118_0" function="internal">
        <lane id=":118_0_0" index="0" speed="11.29" length="21.57" shape="3.44,250.78 1.62,246.66 1.55,241.95 3.24,236.67 6.69,230.79"/>
    </edge>
    <edge id=":118_1" function="internal">
        <lane id=":118_1_0" index="0" speed="8.56" length="5.65" shape="3.44,250.78 1.78,246.74 2.11,245.50"/>
    </edge>
    <edge id=":118_7" function="internal">
        <lane id=":118_7_0" index="0" speed="8.56" length="14.21" shape="2.11,245.50 2.75,243.10 6.37,239.86 12.63,237.02"/>
    </edge>
    <edge id=":118_2" function="internal">
        <lane id=":118_2_0" index="0" speed="7.20" length="13.70" shape="13.68,240.04 9.02,242.05 6.20,244.21 5.21,246.50 6.06,248.93"/>
    </edge>
    <edge id=":118_3" function="internal">
        <lane id=":118_3_0" index="0" speed="7.62" length="22.02" shape="13.68,240.04 6.55,241.80 3.01,240.84 3.06,237.17 6.69,230.79"/>
    </edge>
    <edge id=":118_4" function="internal">
        <lane id=":118_4_0" index="0" speed="3.65" length="1.44" shape="13.68,240.04 12.28,239.68"/>
    </edge>
    <edge id=":118_8" function="internal">
        <lane id=":118_8_0" index="0" speed="3.65" length="3.23" shape="12.28,239.68 11.64,239.05 11.76,238.17 12.63,237.02"/>
    </edge>
    <edge id=":118_5" function="internal">
        <lane id=":118_5_0" index="0" speed="5.46" length="10.45" shape="9.31,232.63 7.59,235.66 7.56,237.40 9.24,237.85 12.63,237.02"/>
    </edge>
    <edge id=":118_6" function="internal">
        <lane id=":118_6_0" index="0" speed="10.25" length="17.65" shape="9.31,232.63 6.35,237.58 4.82,241.95 4.72,245.73 6.06,248.93"/>
    </edge>
    <edge id=":12_0" function="internal">
        <lane id=":12_0_0" index="0" speed="10.54" length="16.07" shape="343.59,426.67 340.67,423.02 337.50,420.52 334.08,419.18 330.41,418.99"/>
    </edge>
    <edge id=":12_1" function="internal">
        <lane id=":12_1_0" index="0" speed="13.89" length="22.75" shape="343.59,426.67 340.98,422.46 337.74,416.92 334.60,411.33 332.28,406.94"/>
    </edge>
    <edge id=":12_2" function="internal">
        <lane id=":12_2_0" index="0" speed="13.71" length="6.50" shape="343.59,426.67 340.98,421.60 340.80,420.83"/>
    </edge>
    <edge id=":12_3" function="internal">
        <lane id=":12_3_0" index="0" speed="7.39" length="5.99" shape="343.59,426.67 340.96,421.44 340.97,421.31"/>
    </edge>
    <edge id=":12_4" function="internal">
        <lane id=":12_4_0" index="0" speed="3.65" length="1.44" shape="343.59,426.67 343.60,425.23"/>
    </edge>
    <edge id=":12_25" function="internal">
        <lane id=":12_25_0" index="0" speed="13.71" length="15.94" shape="340.80,420.83 339.72,416.33 339.80,410.86 341.23,405.19"/>
    </edge>
    <edge id=":12_26" function="internal">
        <lane id=":12_26_0" index="0" speed="7.39" length="12.60" shape="340.97,421.31 341.16,418.01 344.18,416.36 350.04,416.51"/>
    </edge>
    <edge id=":12_27" function="internal">
        <lane id=":12_27_0" index="0" speed="3.65" length="3.23" shape="343.60,425.23 344.05,424.46 344.94,424.35 346.26,424.91"/>
    </edge>
    <edge id=":12_5" function="internal">
        <lane id=":12_5_0" index="0" speed="5.50" length="9.58" shape="349.58,419.68 346.57,419.60 345.01,420.45 344.91,422.22 346.26,424.91"/>
    </edge>
    <edge id=":12_6" function="internal">
        <lane id=":12_6_0" index="0" speed="13.89" length="19.22" shape="349.58,419.68 345.20,419.20 340.00,418.87 334.81,418.78 330.41,418.99"/>
    </edge>
    <edge id=":12_7" function="internal">
        <lane id=":12_7_0" index="0" speed="13.36" length="4.76" shape="349.58,419.68 344.98,418.48"/>
    </edge>
    <edge id=":12_8" function="internal">
        <lane id=":12_8_0" index="0" speed="8.80" length="3.92" shape="349.58,419.68 345.83,418.56"/>
    </edge>
    <edge id=":12_9" function="internal">
        <lane id=":12_9_0" index="0" speed="3.65" length="1.44" shape="349.58,419.68 348.51,418.71"/>
    </edge>
    <edge id=":12_28" function="internal">
        <lane id=":12_28_0" index="0" speed="13.36" length="17.62" shape="344.98,418.48 344.06,418.24 339.34,415.64 335.41,411.88 332.28,406.94"/>
    </edge>
    <edge id=":12_29" function="internal">
        <lane id=":12_29_0" index="0" speed="8.80" length="16.21" shape="345.83,418.56 344.20,418.07 341.01,415.12 340.02,410.83 341.23,405.19"/>
    </edge>
    <edge id=":12_30" function="internal">
        <lane id=":12_30_0" index="0" speed="3.65" length="3.23" shape="348.51,418.71 348.23,417.86 348.74,417.13 350.04,416.51"/>
    </edge>
    <edge id=":12_10" function="internal">
        <lane id=":12_10_0" index="0" speed="7.46" length="14.15" shape="344.24,406.29 343.38,410.27 344.06,413.30 346.28,415.38 350.04,416.51"/>
    </edge>
    <edge id=":12_11" function="internal">
        <lane id=":12_11_0" index="0" speed="12.79" length="19.45" shape="344.24,406.29 342.99,411.21 342.92,415.95 344.01,420.52 346.26,424.91"/>
    </edge>
    <edge id=":12_12" function="internal">
        <lane id=":12_12_0" index="0" speed="11.49" length="19.84" shape="344.24,406.29 341.77,411.47 338.64,415.32 334.85,417.82 330.41,418.99"/>
    </edge>
    <edge id=":12_13" function="internal">
        <lane id=":12_13_0" index="0" speed="7.41" length="19.00" shape="344.24,406.29 341.53,411.68 338.64,413.59 335.56,412.01 332.28,406.94"/>
    </edge>
    <edge id=":12_14" function="internal">
        <lane id=":12_14_0" index="0" speed="3.65" length="1.44" shape="344.24,406.29 343.07,407.14"/>
    </edge>
    <edge id=":12_31" function="internal">
        <lane id=":12_31_0" index="0" speed="3.65" length="3.23" shape="343.07,407.14 342.19,407.24 341.57,406.59 341.23,405.19"/>
    </edge>
    <edge id=":12_15" function="internal">
        <lane id=":12_15_0" index="0" speed="5.49" length="9.67" shape="335.15,405.53 336.81,408.10 338.38,408.91 339.86,407.94 341.23,405.19"/>
    </edge>
    <edge id=":12_16" function="internal">
        <lane id=":12_16_0" index="0" speed="12.43" length="19.28" shape="335.15,405.53 337.85,409.78 341.23,413.03 345.29,415.27 350.04,416.51"/>
    </edge>
    <edge id=":12_17" function="internal">
        <lane id=":12_17_0" index="0" speed="13.89" length="22.35" shape="335.15,405.53 337.43,409.86 340.50,415.33 343.68,420.75 346.26,424.91"/>
    </edge>
    <edge id=":12_18" function="internal">
        <lane id=":12_18_0" index="0" speed="7.97" length="5.18" shape="335.15,405.53 336.92,410.39"/>
    </edge>
    <edge id=":12_19" function="internal">
        <lane id=":12_19_0" index="0" speed="3.65" length="1.44" shape="335.15,405.53 334.96,406.96"/>
    </edge>
    <edge id=":12_32" function="internal">
        <lane id=":12_32_0" index="0" speed="7.97" length="12.74" shape="336.92,410.39 337.14,410.99 337.02,415.06 334.77,417.73 330.41,418.99"/>
    </edge>
    <edge id=":12_33" function="internal">
        <lane id=":12_33_0" index="0" speed="3.65" length="3.23" shape="334.96,406.96 334.42,407.67 333.53,407.67 332.28,406.94"/>
    </edge>
    <edge id=":12_20" function="internal">
        <lane id=":12_20_0" index="0" speed="6.46" length="11.31" shape="330.08,415.81 332.56,415.01 333.76,413.27 333.67,410.58 332.28,406.94"/>
    </edge>
    <edge id=":12_21" function="internal">
        <lane id=":12_21_0" index="0" speed="10.44" length="16.25" shape="330.08,415.81 333.61,414.85 336.65,412.76 339.19,409.54 341.23,405.19"/>
    </edge>
    <edge id=":12_22" function="internal">
        <lane id=":12_22_0" index="0" speed="13.89" length="20.00" shape="330.08,415.81 334.60,415.60 340.07,415.70 345.53,416.03 350.04,416.51"/>
    </edge>
    <edge id=":12_23" function="internal">
        <lane id=":12_23_0" index="0" speed="11.59" length="5.27" shape="330.08,415.81 334.66,416.01 335.30,416.24"/>
    </edge>
    <edge id=":12_24" function="internal">
        <lane id=":12_24_0" index="0" speed="3.65" length="1.44" shape="330.08,415.81 331.35,416.48"/>
    </edge>
    <edge id=":12_34" function="internal">
        <lane id=":12_34_0" index="0" speed="11.59" length="14.30" shape="335.30,416.24 338.89,417.59 342.75,420.56 346.26,424.91"/>
    </edge>
    <edge id=":12_35" function="internal">
        <lane id=":12_35_0" index="0" speed="3.65" length="3.23" shape="331.35,416.48 331.83,417.23 331.52,418.07 330.41,418.99"/>
    </edge>
    <edge id=":122_0" function="internal">
        <lane id=":122_0_0" index="0" speed="13.89" length="29.23" shape="608.61,384.83 607.01,381.91 602.76,377.88 595.84,372.75 586.26,366.52"/>
    </edge>
    <edge id=":122_1" function="internal">
        <lane id=":122_1_0" index="0" speed="13.89" length="30.35" shape="608.61,384.83 606.05,379.46 600.70,372.21 594.84,365.18 590.71,360.51"/>
    </edge>
    <edge id=":122_2" function="internal">
        <lane id=":122_2_0" index="0" speed="3.65" length="1.11" shape="608.61,384.83 609.12,383.85"/>
    </edge>
    <edge id=":122_7" function="internal">
        <lane id=":122_7_0" index="0" speed="3.65" length="3.57" shape="609.12,383.85 609.27,383.55 610.02,383.07 610.86,383.37 611.79,384.48"/>
    </edge>
    <edge id=":122_3" function="internal">
        <lane id=":122_3_0" index="0" speed="13.89" length="32.25" shape="593.09,358.38 597.34,363.32 603.48,370.96 609.10,378.82 611.79,384.48"/>
    </edge>
    <edge id=":122_4" function="internal">
        <lane id=":122_4_0" index="0" speed="5.97" length="2.09" shape="593.09,358.38 593.81,360.34"/>
    </edge>
    <edge id=":122_8" function="internal">
        <lane id=":122_8_0" index="0" speed="5.97" length="12.69" shape="593.81,360.34 594.39,361.94 593.04,365.27 590.00,367.18 586.26,366.52"/>
    </edge>
    <edge id=":122_5" function="internal">
        <lane id=":122_5_0" index="0" speed="6.16" length="15.85" shape="587.95,363.80 592.97,366.62 595.11,367.00 594.35,364.97 590.71,360.51"/>
    </edge>
    <edge id=":122_6" function="internal">
        <lane id=":122_6_0" index="0" speed="13.89" length="32.03" shape="587.95,363.80 598.11,370.49 605.48,376.17 610.04,380.83 611.79,384.48"/>
    </edge>
    <edge id=":124_0" function="internal">
        <lane id=":124_0_0" index="0" speed="6.37" length="4.69" shape="629.08,588.42 629.00,589.63 628.66,590.71 628.05,591.66 627.16,592.49"/>
    </edge>
    <edge id=":124_1" function="internal">
        <lane id=":124_1_0" index="0" speed="4.06" length="1.56" shape="625.24,589.93 625.54,589.65 625.74,589.33 625.86,588.97 625.88,588.57"/>
    </edge>
    <edge id=":137_0" function="internal">
        <lane id=":137_0_0" index="0" speed="9.35" length="1.86" shape="386.20,687.82 385.65,687.84 385.27,687.82 384.90,687.73 384.38,687.55"/>
    </edge>
    <edge id=":137_1" function="internal">
        <lane id=":137_1_0" index="0" speed="3.65" length="1.44" shape="386.20,687.82 384.96,687.08"/>
    </edge>
    <edge id=":137_3" function="internal">
        <lane id=":137_3_0" index="0" speed="3.65" length="3.23" shape="384.96,687.08 384.52,686.30 384.89,685.48 386.05,684.62"/>
    </edge>
    <edge id=":137_2" function="internal">
        <lane id=":137_2_0" index="0" speed="13.89" length="0.62" shape="385.44,684.53 385.61,684.59 385.74,684.62 385.86,684.63 386.05,684.62"/>
    </edge>
    <edge id=":14_0" function="internal">
        <lane id=":14_0_0" index="0" speed="7.11" length="10.72" shape="117.92,211.65 116.40,208.68 114.57,206.81 112.42,206.06 109.96,206.42"/>
    </edge>
    <edge id=":14_1" function="internal">
        <lane id=":14_1_0" index="0" speed="7.44" length="16.34" shape="117.92,211.65 116.81,206.95 117.68,203.73 120.52,202.00 125.35,201.75"/>
    </edge>
    <edge id=":14_2" function="internal">
        <lane id=":14_2_0" index="0" speed="3.65" length="1.44" shape="117.92,211.65 118.24,210.25"/>
    </edge>
    <edge id=":14_9" function="internal">
        <lane id=":14_9_0" index="0" speed="3.65" length="3.23" shape="118.24,210.25 118.84,209.58 119.73,209.67 120.91,210.50"/>
    </edge>
    <edge id=":14_3" function="internal">
        <lane id=":14_3_0" index="0" speed="5.75" length="9.18" shape="125.08,204.94 122.37,205.08 120.77,206.05 120.28,207.86 120.91,210.50"/>
    </edge>
    <edge id=":14_4" function="internal">
        <lane id=":14_4_0" index="0" speed="13.89" length="15.30" shape="125.08,204.94 121.28,204.76 117.42,204.90 113.61,205.43 109.96,206.42"/>
    </edge>
    <edge id=":14_5" function="internal">
        <lane id=":14_5_0" index="0" speed="3.65" length="1.44" shape="125.08,204.94 123.95,204.04"/>
    </edge>
    <edge id=":14_10" function="internal">
        <lane id=":14_10_0" index="0" speed="3.65" length="3.23" shape="123.95,204.04 123.62,203.21 124.09,202.44 125.35,201.75"/>
    </edge>
    <edge id=":14_6" function="internal">
        <lane id=":14_6_0" index="0" speed="13.89" length="16.63" shape="108.90,203.40 112.76,202.39 117.03,201.80 121.34,201.60 125.35,201.75"/>
    </edge>
    <edge id=":14_7" function="internal">
        <lane id=":14_7_0" index="0" speed="8.50" length="4.28" shape="108.90,203.40 112.71,202.77 113.11,202.89"/>
    </edge>
    <edge id=":14_8" function="internal">
        <lane id=":14_8_0" index="0" speed="3.65" length="1.44" shape="108.90,203.40 110.30,203.76"/>
    </edge>
    <edge id=":14_11" function="internal">
        <lane id=":14_11_0" index="0" speed="8.50" length="11.47" shape="113.11,202.89 115.98,203.75 118.72,206.32 120.91,210.50"/>
    </edge>
    <edge id=":14_12" function="internal">
        <lane id=":14_12_0" index="0" speed="3.65" length="3.23" shape="110.30,203.76 110.94,204.38 110.83,205.27 109.96,206.42"/>
    </edge>
    <edge id=":18_0" function="internal">
        <lane id=":18_0_0" index="0" speed="6.60" length="11.72" shape="622.08,509.05 621.39,506.54 619.62,505.27 616.78,505.22 612.86,506.40"/>
    </edge>
    <edge id=":18_1" function="internal">
        <lane id=":18_1_0" index="0" speed="10.40" length="16.46" shape="622.08,509.05 621.29,505.52 619.30,502.41 616.10,499.72 611.68,497.46"/>
    </edge>
    <edge id=":18_2" function="internal">
        <lane id=":18_2_0" index="0" speed="13.89" length="17.80" shape="622.08,509.05 620.63,491.31"/>
    </edge>
    <edge id=":18_3" function="internal">
        <lane id=":18_3_0" index="0" speed="3.65" length="1.29" shape="622.08,509.05 622.74,507.95"/>
    </edge>
    <edge id=":18_16" function="internal">
        <lane id=":18_16_0" index="0" speed="3.65" length="3.39" shape="622.74,507.95 622.82,507.81 623.60,507.38 624.42,507.74 625.27,508.90"/>
    </edge>
    <edge id=":18_4" function="internal">
        <lane id=":18_4_0" index="0" speed="13.89" length="18.00" shape="623.81,490.96 625.27,508.90"/>
    </edge>
    <edge id=":18_5" function="internal">
        <lane id=":18_5_0" index="0" speed="10.63" length="20.50" shape="623.81,490.96 623.57,495.88 621.66,500.09 618.09,503.60 612.86,506.40"/>
    </edge>
    <edge id=":18_6" function="internal">
        <lane id=":18_6_0" index="0" speed="7.77" length="7.47" shape="623.81,490.96 623.56,495.87 622.00,497.89"/>
    </edge>
    <edge id=":18_7" function="internal">
        <lane id=":18_7_0" index="0" speed="3.65" length="1.44" shape="623.81,490.96 623.15,492.24"/>
    </edge>
    <edge id=":18_17" function="internal">
        <lane id=":18_17_0" index="0" speed="7.77" length="10.94" shape="622.00,497.89 621.45,498.60 617.49,499.12 611.68,497.46"/>
    </edge>
    <edge id=":18_18" function="internal">
        <lane id=":18_18_0" index="0" speed="3.65" length="3.23" shape="623.15,492.24 622.40,492.72 621.56,492.42 620.63,491.31"/>
    </edge>
    <edge id=":18_8" function="internal">
        <lane id=":18_8_0" index="0" speed="6.15" length="11.02" shape="612.89,494.49 616.56,495.60 619.07,495.44 620.42,494.01 620.63,491.31"/>
    </edge>
    <edge id=":18_9" function="internal">
        <lane id=":18_9_0" index="0" speed="11.45" length="20.09" shape="612.89,494.49 618.14,497.23 621.95,500.54 624.33,504.43 625.27,508.90"/>
    </edge>
    <edge id=":18_10" function="internal">
        <lane id=":18_10_0" index="0" speed="7.43" length="8.04" shape="612.89,494.49 618.38,497.49 619.31,499.02"/>
    </edge>
    <edge id=":18_11" function="internal">
        <lane id=":18_11_0" index="0" speed="3.65" length="1.44" shape="612.89,494.49 613.70,495.69"/>
    </edge>
    <edge id=":18_19" function="internal">
        <lane id=":18_19_0" index="0" speed="7.43" length="11.44" shape="619.31,499.02 620.20,500.47 618.36,503.44 612.86,506.40"/>
    </edge>
    <edge id=":18_20" function="internal">
        <lane id=":18_20_0" index="0" speed="3.65" length="3.23" shape="613.70,495.69 613.77,496.58 613.09,497.17 611.68,497.46"/>
    </edge>
    <edge id=":18_12" function="internal">
        <lane id=":18_12_0" index="0" speed="5.47" length="9.78" shape="611.66,503.43 614.42,501.95 615.35,500.46 614.43,498.96 611.68,497.46"/>
    </edge>
    <edge id=":18_13" function="internal">
        <lane id=":18_13_0" index="0" speed="9.53" length="16.30" shape="611.66,503.43 615.93,501.18 618.84,498.41 620.41,495.12 620.63,491.31"/>
    </edge>
    <edge id=":18_14" function="internal">
        <lane id=":18_14_0" index="0" speed="8.08" length="3.30" shape="611.66,503.43 614.84,502.53"/>
    </edge>
    <edge id=":18_15" function="internal">
        <lane id=":18_15_0" index="0" speed="3.65" length="1.33" shape="611.66,503.43 612.96,503.70"/>
    </edge>
    <edge id=":18_21" function="internal">
        <lane id=":18_21_0" index="0" speed="8.08" length="14.91" shape="614.84,502.53 617.42,501.79 621.61,502.16 624.23,504.53 625.27,508.90"/>
    </edge>
    <edge id=":18_22" function="internal">
        <lane id=":18_22_0" index="0" speed="3.65" length="3.34" shape="612.96,503.70 613.07,503.73 613.74,504.32 613.67,505.21 612.86,506.40"/>
    </edge>
    <edge id=":2_0" function="internal">
        <lane id=":2_0_0" index="0" speed="13.89" length="13.64" shape="204.04,438.17 203.31,434.71 202.51,431.53 201.55,428.39 200.34,425.06"/>
    </edge>
    <edge id=":2_1" function="internal">
        <lane id=":2_1_0" index="0" speed="7.85" length="4.04" shape="204.04,438.17 203.83,434.14"/>
    </edge>
    <edge id=":2_2" function="internal">
        <lane id=":2_2_0" index="0" speed="3.65" length="1.44" shape="204.04,438.17 204.60,436.84"/>
    </edge>
    <edge id=":2_9" function="internal">
        <lane id=":2_9_0" index="0" speed="7.85" length="10.51" shape="203.83,434.14 205.00,431.12 207.54,429.12 211.46,428.13"/>
    </edge>
    <edge id=":2_10" function="internal">
        <lane id=":2_10_0" index="0" speed="3.65" length="3.23" shape="204.60,436.84 205.30,436.29 206.17,436.53 207.18,437.55"/>
    </edge>
    <edge id=":2_3" function="internal">
        <lane id=":2_3_0" index="0" speed="6.32" length="9.04" shape="211.79,431.32 209.36,431.93 207.78,433.17 207.05,435.05 207.18,437.55"/>
    </edge>
    <edge id=":2_4" function="internal">
        <lane id=":2_4_0" index="0" speed="8.88" length="14.15" shape="211.79,431.32 207.82,431.26 204.59,430.20 202.10,428.14 200.34,425.06"/>
    </edge>
    <edge id=":2_5" function="internal">
        <lane id=":2_5_0" index="0" speed="3.65" length="1.44" shape="211.79,431.32 210.52,430.64"/>
    </edge>
    <edge id=":2_11" function="internal">
        <lane id=":2_11_0" index="0" speed="3.65" length="3.23" shape="210.52,430.64 210.03,429.89 210.35,429.05 211.46,428.13"/>
    </edge>
    <edge id=":2_6" function="internal">
        <lane id=":2_6_0" index="0" speed="7.53" length="9.93" shape="203.33,423.91 204.54,426.00 206.30,427.40 208.61,428.11 211.46,428.13"/>
    </edge>
    <edge id=":2_7" function="internal">
        <lane id=":2_7_0" index="0" speed="13.89" length="14.20" shape="203.33,423.91 204.56,427.32 205.57,430.64 206.43,434.01 207.18,437.55"/>
    </edge>
    <edge id=":2_8" function="internal">
        <lane id=":2_8_0" index="0" speed="3.65" length="1.44" shape="203.33,423.91 203.02,425.32"/>
    </edge>
    <edge id=":2_12" function="internal">
        <lane id=":2_12_0" index="0" speed="3.65" length="3.23" shape="203.02,425.32 202.41,425.98 201.52,425.89 200.34,425.06"/>
    </edge>
    <edge id=":24_0" function="internal">
        <lane id=":24_0_0" index="0" speed="13.89" length="17.30" shape="514.26,677.14 510.74,679.20 506.50,680.82 502.08,681.92 497.99,682.43"/>
    </edge>
    <edge id=":24_1" function="internal">
        <lane id=":24_1_0" index="0" speed="8.19" length="4.71" shape="514.26,677.14 510.65,678.99 510.00,678.98"/>
    </edge>
    <edge id=":24_2" function="internal">
        <lane id=":24_2_0" index="0" speed="3.65" length="1.44" shape="514.26,677.14 512.82,677.22"/>
    </edge>
    <edge id=":24_9" function="internal">
        <lane id=":24_9_0" index="0" speed="8.19" length="11.35" shape="510.00,678.98 507.24,678.94 504.04,677.01 501.05,673.19"/>
    </edge>
    <edge id=":24_10" function="internal">
        <lane id=":24_10_0" index="0" speed="3.65" length="3.23" shape="512.82,677.22 512.03,676.82 511.87,675.94 512.35,674.58"/>
    </edge>
    <edge id=":24_3" function="internal">
        <lane id=":24_3_0" index="0" speed="6.75" length="10.53" shape="503.79,671.53 505.80,674.16 507.90,675.55 510.08,675.69 512.35,674.58"/>
    </edge>
    <edge id=":24_4" function="internal">
        <lane id=":24_4_0" index="0" speed="7.42" length="16.62" shape="503.79,671.53 505.77,676.08 505.47,679.42 502.87,681.53 497.99,682.43"/>
    </edge>
    <edge id=":24_5" function="internal">
        <lane id=":24_5_0" index="0" speed="3.65" length="1.44" shape="503.79,671.53 503.72,672.97"/>
    </edge>
    <edge id=":24_11" function="internal">
        <lane id=":24_11_0" index="0" speed="3.65" length="3.23" shape="503.72,672.97 503.25,673.73 502.36,673.80 501.05,673.19"/>
    </edge>
    <edge id=":24_6" function="internal">
        <lane id=":24_6_0" index="0" speed="5.70" length="9.21" shape="497.84,679.23 500.54,678.73 501.98,677.56 502.15,675.71 501.05,673.19"/>
    </edge>
    <edge id=":24_7" function="internal">
        <lane id=":24_7_0" index="0" speed="13.89" length="15.44" shape="497.84,679.23 501.65,678.83 505.46,677.94 509.09,676.54 512.35,674.58"/>
    </edge>
    <edge id=":24_8" function="internal">
        <lane id=":24_8_0" index="0" speed="3.65" length="1.44" shape="497.84,679.23 499.07,679.97"/>
    </edge>
    <edge id=":24_12" function="internal">